<?xml version='1.0' encoding='utf-8'?>
<routes>
    
    <!-- Age group below 40 -->
    <vType id="SPedelec_below_40" vClass="bicycle" accel="1.2" decel="2.15" emergencyDecel="5.00" maxSpeed="8.094" speedFactor="1.0" speedDev="0.0" tau="1.0" sigma="0.0" /> 
    
    <route id="goethestr_west_east" edges="31342064#0 31342064#2 305495773#0 305495773#2 266507551" />
    <route id="goethestr_east_west" edges="814691984#0 814691984#1 305390325#0 305390325#2 305390325#3 266567304#0" />
    <route id="schrillerstr_north_south" edges="-137463478#2 -137463478#1 -137463478#1.16 25796398#0 25796398#1 31894763#0 137463475#0 137463475#1 137463475#2" />
    <route id="schrillerstr_south_north" edges="-137463475#2 -137463475#1 -137463475#0 137463477#0 137463477#1 25902677#1 137463478#1 137463478#1.19 137463478#1.104 137463478#2" />

    <vehicle id="bike_21" type="SPedelec_below_40" depart="145.28">
        <route edges="-137463475#2 -137463475#1 -137463475#0 137463477#0 137463477#1 25902677#1 137463478#1 137463478#1.19 137463478#1.104 137463478#2" />
    </vehicle>
    <vehicle id="bike_13" type="SPedelec_below_40" depart="335.07">
        <route edges="-137463475#2 -137463475#1 -137463475#0 137463477#0 137463477#1 25902677#1 137463478#1 137463478#1.19 137463478#1.104 137463478#2" />
    </vehicle>
    <vehicle id="bike_79" type="SPedelec_below_40" depart="382.59">
        <route edges="-137463475#2 -137463475#1 -137463475#0 137463477#0 137463477#1 25902677#1 137463478#1 137463478#1.19 137463478#1.104 137463478#2" />
    </vehicle>
    <vehicle id="bike_32" type="SPedelec_below_40" depart="592.76">
        <route edges="-137463475#2 -137463475#1 -137463475#0 137463477#0 137463477#1 25902677#1 137463478#1 137463478#1.19 137463478#1.104 137463478#2" />
    </vehicle>
    <vehicle id="bike_4" type="SPedelec_below_40" depart="685.24">
        <route edges="-137463475#2 -137463475#1 -137463475#0 137463477#0 137463477#1 25902677#1 137463478#1 137463478#1.19 137463478#1.104 137463478#2" />
    </vehicle>
    <vehicle id="bike_33" type="SPedelec_below_40" depart="742.45">
        <route edges="-137463475#2 -137463475#1 -137463475#0 137463477#0 137463477#1 25902677#1 137463478#1 137463478#1.19 137463478#1.104 137463478#2" />
    </vehicle>
    <vehicle id="bike_45" type="SPedelec_below_40" depart="938.89">
        <route edges="-137463475#2 -137463475#1 -137463475#0 137463477#0 137463477#1 25902677#1 137463478#1 137463478#1.19 137463478#1.104 137463478#2" />
    </vehicle>
    <vehicle id="bike_22" type="SPedelec_below_40" depart="1133.94">
        <route edges="-137463475#2 -137463475#1 -137463475#0 137463477#0 137463477#1 25902677#1 137463478#1 137463478#1.19 137463478#1.104 137463478#2" />
    </vehicle>
    <vehicle id="bike_43" type="SPedelec_below_40" depart="1566.38">
        <route edges="-137463475#2 -137463475#1 -137463475#0 137463477#0 137463477#1 25902677#1 137463478#1 137463478#1.19 137463478#1.104 137463478#2" />
    </vehicle>
    <vehicle id="bike_49" type="SPedelec_below_40" depart="1733.66">
        <route edges="-137463475#2 -137463475#1 -137463475#0 137463477#0 137463477#1 25902677#1 137463478#1 137463478#1.19 137463478#1.104 137463478#2" />
    </vehicle>
    <vehicle id="bike_14" type="SPedelec_below_40" depart="1824.05">
        <route edges="-137463475#2 -137463475#1 -137463475#0 137463477#0 137463477#1 25902677#1 137463478#1 137463478#1.19 137463478#1.104 137463478#2" />
    </vehicle>
    <vehicle id="bike_6" type="SPedelec_below_40" depart="1956.47">
        <route edges="-137463475#2 -137463475#1 -137463475#0 137463477#0 137463477#1 25902677#1 137463478#1 137463478#1.19 137463478#1.104 137463478#2" />
    </vehicle>
    <vehicle id="bike_59" type="SPedelec_below_40" depart="1999.08">
        <route edges="-137463475#2 -137463475#1 -137463475#0 137463477#0 137463477#1 25902677#1 137463478#1 137463478#1.19 137463478#1.104 137463478#2" />
    </vehicle>
    <vehicle id="bike_71" type="SPedelec_below_40" depart="2053.68">
        <route edges="-137463475#2 -137463475#1 -137463475#0 137463477#0 137463477#1 25902677#1 137463478#1 137463478#1.19 137463478#1.104 137463478#2" />
    </vehicle>
    <vehicle id="bike_78" type="SPedelec_below_40" depart="2119.81">
        <route edges="-137463475#2 -137463475#1 -137463475#0 137463477#0 137463477#1 25902677#1 137463478#1 137463478#1.19 137463478#1.104 137463478#2" />
    </vehicle>
    <vehicle id="bike_66" type="SPedelec_below_40" depart="2309.58">
        <route edges="-137463475#2 -137463475#1 -137463475#0 137463477#0 137463477#1 25902677#1 137463478#1 137463478#1.19 137463478#1.104 137463478#2" />
    </vehicle>
    <vehicle id="bike_75" type="SPedelec_below_40" depart="2496.21">
        <route edges="-137463475#2 -137463475#1 -137463475#0 137463477#0 137463477#1 25902677#1 137463478#1 137463478#1.19 137463478#1.104 137463478#2" />
    </vehicle>
    <vehicle id="bike_60" type="SPedelec_below_40" depart="2612.35">
        <route edges="-137463475#2 -137463475#1 -137463475#0 137463477#0 137463477#1 25902677#1 137463478#1 137463478#1.19 137463478#1.104 137463478#2" />
    </vehicle>
    <vehicle id="bike_63" type="SPedelec_below_40" depart="3204.33">
        <route edges="-137463475#2 -137463475#1 -137463475#0 137463477#0 137463477#1 25902677#1 137463478#1 137463478#1.19 137463478#1.104 137463478#2" />
    </vehicle>
    <vehicle id="bike_53" type="SPedelec_below_40" depart="3273.66">
        <route edges="-137463475#2 -137463475#1 -137463475#0 137463477#0 137463477#1 25902677#1 137463478#1 137463478#1.19 137463478#1.104 137463478#2" />
    </vehicle>
    <vehicle id="bike_52" type="SPedelec_below_40" depart="3434.57">
        <route edges="-137463475#2 -137463475#1 -137463475#0 137463477#0 137463477#1 25902677#1 137463478#1 137463478#1.19 137463478#1.104 137463478#2" />
    </vehicle>
    <vehicle id="bike_137" type="SPedelec_below_40" depart="4101.45">
        <route edges="-137463475#2 -137463475#1 -137463475#0 137463477#0 137463477#1 25902677#1 137463478#1 137463478#1.19 137463478#1.104 137463478#2" />
    </vehicle>
    <vehicle id="bike_147" type="SPedelec_below_40" depart="4164.03">
        <route edges="-137463475#2 -137463475#1 -137463475#0 137463477#0 137463477#1 25902677#1 137463478#1 137463478#1.19 137463478#1.104 137463478#2" />
    </vehicle>
    <vehicle id="bike_105" type="SPedelec_below_40" depart="4554.29">
        <route edges="-137463475#2 -137463475#1 -137463475#0 137463477#0 137463477#1 25902677#1 137463478#1 137463478#1.19 137463478#1.104 137463478#2" />
    </vehicle>
    <vehicle id="bike_144" type="SPedelec_below_40" depart="4651.00">
        <route edges="-137463475#2 -137463475#1 -137463475#0 137463477#0 137463477#1 25902677#1 137463478#1 137463478#1.19 137463478#1.104 137463478#2" />
    </vehicle>
    <vehicle id="bike_129" type="SPedelec_below_40" depart="5692.55">
        <route edges="-137463475#2 -137463475#1 -137463475#0 137463477#0 137463477#1 25902677#1 137463478#1 137463478#1.19 137463478#1.104 137463478#2" />
    </vehicle>
    <vehicle id="bike_95" type="SPedelec_below_40" depart="5819.67">
        <route edges="-137463475#2 -137463475#1 -137463475#0 137463477#0 137463477#1 25902677#1 137463478#1 137463478#1.19 137463478#1.104 137463478#2" />
    </vehicle>
    <vehicle id="bike_102" type="SPedelec_below_40" depart="5977.68">
        <route edges="-137463475#2 -137463475#1 -137463475#0 137463477#0 137463477#1 25902677#1 137463478#1 137463478#1.19 137463478#1.104 137463478#2" />
    </vehicle>
    <vehicle id="bike_133" type="SPedelec_below_40" depart="6110.28">
        <route edges="-137463475#2 -137463475#1 -137463475#0 137463477#0 137463477#1 25902677#1 137463478#1 137463478#1.19 137463478#1.104 137463478#2" />
    </vehicle>
    <vehicle id="bike_115" type="SPedelec_below_40" depart="6224.22">
        <route edges="-137463475#2 -137463475#1 -137463475#0 137463477#0 137463477#1 25902677#1 137463478#1 137463478#1.19 137463478#1.104 137463478#2" />
    </vehicle>
    <vehicle id="bike_135" type="SPedelec_below_40" depart="6300.28">
        <route edges="-137463475#2 -137463475#1 -137463475#0 137463477#0 137463477#1 25902677#1 137463478#1 137463478#1.19 137463478#1.104 137463478#2" />
    </vehicle>
    <vehicle id="bike_96" type="SPedelec_below_40" depart="6740.95">
        <route edges="-137463475#2 -137463475#1 -137463475#0 137463477#0 137463477#1 25902677#1 137463478#1 137463478#1.19 137463478#1.104 137463478#2" />
    </vehicle>
    <vehicle id="bike_120" type="SPedelec_below_40" depart="6812.71">
        <route edges="-137463475#2 -137463475#1 -137463475#0 137463477#0 137463477#1 25902677#1 137463478#1 137463478#1.19 137463478#1.104 137463478#2" />
    </vehicle>
    <vehicle id="bike_99" type="SPedelec_below_40" depart="7136.63">
        <route edges="-137463475#2 -137463475#1 -137463475#0 137463477#0 137463477#1 25902677#1 137463478#1 137463478#1.19 137463478#1.104 137463478#2" />
    </vehicle>
    <vehicle id="bike_151" type="SPedelec_below_40" depart="7240.63">
        <route edges="-137463475#2 -137463475#1 -137463475#0 137463477#0 137463477#1 25902677#1 137463478#1 137463478#1.19 137463478#1.104 137463478#2" />
    </vehicle>
    <vehicle id="bike_159" type="SPedelec_below_40" depart="7358.54">
        <route edges="-137463475#2 -137463475#1 -137463475#0 137463477#0 137463477#1 25902677#1 137463478#1 137463478#1.19 137463478#1.104 137463478#2" />
    </vehicle>
    <vehicle id="bike_150" type="SPedelec_below_40" depart="8164.60">
        <route edges="-137463475#2 -137463475#1 -137463475#0 137463477#0 137463477#1 25902677#1 137463478#1 137463478#1.19 137463478#1.104 137463478#2" />
    </vehicle>
    <vehicle id="bike_167" type="SPedelec_below_40" depart="8712.43">
        <route edges="-137463475#2 -137463475#1 -137463475#0 137463477#0 137463477#1 25902677#1 137463478#1 137463478#1.19 137463478#1.104 137463478#2" />
    </vehicle>
    <vehicle id="bike_170" type="SPedelec_below_40" depart="8712.99">
        <route edges="-137463475#2 -137463475#1 -137463475#0 137463477#0 137463477#1 25902677#1 137463478#1 137463478#1.19 137463478#1.104 137463478#2" />
    </vehicle>
    <vehicle id="bike_178" type="SPedelec_below_40" depart="9139.27">
        <route edges="-137463475#2 -137463475#1 -137463475#0 137463477#0 137463477#1 25902677#1 137463478#1 137463478#1.19 137463478#1.104 137463478#2" />
    </vehicle>
    <vehicle id="bike_163" type="SPedelec_below_40" depart="9413.85">
        <route edges="-137463475#2 -137463475#1 -137463475#0 137463477#0 137463477#1 25902677#1 137463478#1 137463478#1.19 137463478#1.104 137463478#2" />
    </vehicle>
    <vehicle id="bike_184" type="SPedelec_below_40" depart="9943.70">
        <route edges="-137463475#2 -137463475#1 -137463475#0 137463477#0 137463477#1 25902677#1 137463478#1 137463478#1.19 137463478#1.104 137463478#2" />
    </vehicle>
    <vehicle id="bike_182" type="SPedelec_below_40" depart="10005.67">
        <route edges="-137463475#2 -137463475#1 -137463475#0 137463477#0 137463477#1 25902677#1 137463478#1 137463478#1.19 137463478#1.104 137463478#2" />
    </vehicle>
    <vehicle id="bike_176" type="SPedelec_below_40" depart="10396.21">
        <route edges="-137463475#2 -137463475#1 -137463475#0 137463477#0 137463477#1 25902677#1 137463478#1 137463478#1.19 137463478#1.104 137463478#2" />
    </vehicle>
    <vehicle id="bike_201" type="SPedelec_below_40" depart="11183.86">
        <route edges="-137463475#2 -137463475#1 -137463475#0 137463477#0 137463477#1 25902677#1 137463478#1 137463478#1.19 137463478#1.104 137463478#2" />
    </vehicle>
    <vehicle id="bike_200" type="SPedelec_below_40" depart="11495.28">
        <route edges="-137463475#2 -137463475#1 -137463475#0 137463477#0 137463477#1 25902677#1 137463478#1 137463478#1.19 137463478#1.104 137463478#2" />
    </vehicle>
    <vehicle id="bike_194" type="SPedelec_below_40" depart="11555.10">
        <route edges="-137463475#2 -137463475#1 -137463475#0 137463477#0 137463477#1 25902677#1 137463478#1 137463478#1.19 137463478#1.104 137463478#2" />
    </vehicle>
    <vehicle id="bike_185" type="SPedelec_below_40" depart="11794.78">
        <route edges="-137463475#2 -137463475#1 -137463475#0 137463477#0 137463477#1 25902677#1 137463478#1 137463478#1.19 137463478#1.104 137463478#2" />
    </vehicle>
    <vehicle id="bike_189" type="SPedelec_below_40" depart="12232.43">
        <route edges="-137463475#2 -137463475#1 -137463475#0 137463477#0 137463477#1 25902677#1 137463478#1 137463478#1.19 137463478#1.104 137463478#2" />
    </vehicle>
    <vehicle id="bike_203" type="SPedelec_below_40" depart="12648.14">
        <route edges="-137463475#2 -137463475#1 -137463475#0 137463477#0 137463477#1 25902677#1 137463478#1 137463478#1.19 137463478#1.104 137463478#2" />
    </vehicle>
    <vehicle id="bike_186" type="SPedelec_below_40" depart="12744.31">
        <route edges="-137463475#2 -137463475#1 -137463475#0 137463477#0 137463477#1 25902677#1 137463478#1 137463478#1.19 137463478#1.104 137463478#2" />
    </vehicle>
    <vehicle id="bike_211" type="SPedelec_below_40" depart="12973.53">
        <route edges="-137463475#2 -137463475#1 -137463475#0 137463477#0 137463477#1 25902677#1 137463478#1 137463478#1.19 137463478#1.104 137463478#2" />
    </vehicle>
    <vehicle id="bike_219" type="SPedelec_below_40" depart="15398.38">
        <route edges="-137463475#2 -137463475#1 -137463475#0 137463477#0 137463477#1 25902677#1 137463478#1 137463478#1.19 137463478#1.104 137463478#2" />
    </vehicle>
    <vehicle id="bike_234" type="SPedelec_below_40" depart="15522.93">
        <route edges="-137463475#2 -137463475#1 -137463475#0 137463477#0 137463477#1 25902677#1 137463478#1 137463478#1.19 137463478#1.104 137463478#2" />
    </vehicle>
    <vehicle id="bike_230" type="SPedelec_below_40" depart="15700.74">
        <route edges="-137463475#2 -137463475#1 -137463475#0 137463477#0 137463477#1 25902677#1 137463478#1 137463478#1.19 137463478#1.104 137463478#2" />
    </vehicle>
    <vehicle id="bike_236" type="SPedelec_below_40" depart="15778.10">
        <route edges="-137463475#2 -137463475#1 -137463475#0 137463477#0 137463477#1 25902677#1 137463478#1 137463478#1.19 137463478#1.104 137463478#2" />
    </vehicle>
    <vehicle id="bike_233" type="SPedelec_below_40" depart="17126.47">
        <route edges="-137463475#2 -137463475#1 -137463475#0 137463477#0 137463477#1 25902677#1 137463478#1 137463478#1.19 137463478#1.104 137463478#2" />
    </vehicle>
    <vehicle id="bike_239" type="SPedelec_below_40" depart="17209.19">
        <route edges="-137463475#2 -137463475#1 -137463475#0 137463477#0 137463477#1 25902677#1 137463478#1 137463478#1.19 137463478#1.104 137463478#2" />
    </vehicle>
    <vehicle id="bike_227" type="SPedelec_below_40" depart="17636.48">
        <route edges="-137463475#2 -137463475#1 -137463475#0 137463477#0 137463477#1 25902677#1 137463478#1 137463478#1.19 137463478#1.104 137463478#2" />
    </vehicle>
    <vehicle id="bike_240" type="SPedelec_below_40" depart="17736.12">
        <route edges="-137463475#2 -137463475#1 -137463475#0 137463477#0 137463477#1 25902677#1 137463478#1 137463478#1.19 137463478#1.104 137463478#2" />
    </vehicle>
    <vehicle id="bike_306" type="SPedelec_below_40" depart="18042.39">
        <route edges="-137463475#2 -137463475#1 -137463475#0 137463477#0 137463477#1 25902677#1 137463478#1 137463478#1.19 137463478#1.104 137463478#2" />
    </vehicle>
    <vehicle id="bike_303" type="SPedelec_below_40" depart="18711.75">
        <route edges="-137463475#2 -137463475#1 -137463475#0 137463477#0 137463477#1 25902677#1 137463478#1 137463478#1.19 137463478#1.104 137463478#2" />
    </vehicle>
    <vehicle id="bike_314" type="SPedelec_below_40" depart="19138.56">
        <route edges="-137463475#2 -137463475#1 -137463475#0 137463477#0 137463477#1 25902677#1 137463478#1 137463478#1.19 137463478#1.104 137463478#2" />
    </vehicle>
    <vehicle id="bike_244" type="SPedelec_below_40" depart="19167.96">
        <route edges="-137463475#2 -137463475#1 -137463475#0 137463477#0 137463477#1 25902677#1 137463478#1 137463478#1.19 137463478#1.104 137463478#2" />
    </vehicle>
    <vehicle id="bike_276" type="SPedelec_below_40" depart="19482.42">
        <route edges="-137463475#2 -137463475#1 -137463475#0 137463477#0 137463477#1 25902677#1 137463478#1 137463478#1.19 137463478#1.104 137463478#2" />
    </vehicle>
    <vehicle id="bike_253" type="SPedelec_below_40" depart="19721.07">
        <route edges="-137463475#2 -137463475#1 -137463475#0 137463477#0 137463477#1 25902677#1 137463478#1 137463478#1.19 137463478#1.104 137463478#2" />
    </vehicle>
    <vehicle id="bike_258" type="SPedelec_below_40" depart="20239.12">
        <route edges="-137463475#2 -137463475#1 -137463475#0 137463477#0 137463477#1 25902677#1 137463478#1 137463478#1.19 137463478#1.104 137463478#2" />
    </vehicle>
    <vehicle id="bike_249" type="SPedelec_below_40" depart="20322.32">
        <route edges="-137463475#2 -137463475#1 -137463475#0 137463477#0 137463477#1 25902677#1 137463478#1 137463478#1.19 137463478#1.104 137463478#2" />
    </vehicle>
    <vehicle id="bike_269" type="SPedelec_below_40" depart="20389.99">
        <route edges="-137463475#2 -137463475#1 -137463475#0 137463477#0 137463477#1 25902677#1 137463478#1 137463478#1.19 137463478#1.104 137463478#2" />
    </vehicle>
    <vehicle id="bike_248" type="SPedelec_below_40" depart="20410.88">
        <route edges="-137463475#2 -137463475#1 -137463475#0 137463477#0 137463477#1 25902677#1 137463478#1 137463478#1.19 137463478#1.104 137463478#2" />
    </vehicle>
    <vehicle id="bike_312" type="SPedelec_below_40" depart="20953.92">
        <route edges="-137463475#2 -137463475#1 -137463475#0 137463477#0 137463477#1 25902677#1 137463478#1 137463478#1.19 137463478#1.104 137463478#2" />
    </vehicle>
    <vehicle id="bike_281" type="SPedelec_below_40" depart="21168.61">
        <route edges="-137463475#2 -137463475#1 -137463475#0 137463477#0 137463477#1 25902677#1 137463478#1 137463478#1.19 137463478#1.104 137463478#2" />
    </vehicle>
    <vehicle id="bike_271" type="SPedelec_below_40" depart="21170.44">
        <route edges="-137463475#2 -137463475#1 -137463475#0 137463477#0 137463477#1 25902677#1 137463478#1 137463478#1.19 137463478#1.104 137463478#2" />
    </vehicle>
    <vehicle id="bike_318" type="SPedelec_below_40" depart="21473.96">
        <route edges="-137463475#2 -137463475#1 -137463475#0 137463477#0 137463477#1 25902677#1 137463478#1 137463478#1.19 137463478#1.104 137463478#2" />
    </vehicle>
    <vehicle id="bike_261" type="SPedelec_below_40" depart="21592.75">
        <route edges="-137463475#2 -137463475#1 -137463475#0 137463477#0 137463477#1 25902677#1 137463478#1 137463478#1.19 137463478#1.104 137463478#2" />
    </vehicle>
    <vehicle id="bike_413" type="SPedelec_below_40" depart="22130.49">
        <route edges="-137463475#2 -137463475#1 -137463475#0 137463477#0 137463477#1 25902677#1 137463478#1 137463478#1.19 137463478#1.104 137463478#2" />
    </vehicle>
    <vehicle id="bike_350" type="SPedelec_below_40" depart="22320.42">
        <route edges="-137463475#2 -137463475#1 -137463475#0 137463477#0 137463477#1 25902677#1 137463478#1 137463478#1.19 137463478#1.104 137463478#2" />
    </vehicle>
    <vehicle id="bike_377" type="SPedelec_below_40" depart="22415.36">
        <route edges="-137463475#2 -137463475#1 -137463475#0 137463477#0 137463477#1 25902677#1 137463478#1 137463478#1.19 137463478#1.104 137463478#2" />
    </vehicle>
    <vehicle id="bike_344" type="SPedelec_below_40" depart="22466.50">
        <route edges="-137463475#2 -137463475#1 -137463475#0 137463477#0 137463477#1 25902677#1 137463478#1 137463478#1.19 137463478#1.104 137463478#2" />
    </vehicle>
    <vehicle id="bike_404" type="SPedelec_below_40" depart="22561.08">
        <route edges="-137463475#2 -137463475#1 -137463475#0 137463477#0 137463477#1 25902677#1 137463478#1 137463478#1.19 137463478#1.104 137463478#2" />
    </vehicle>
    <vehicle id="bike_383" type="SPedelec_below_40" depart="22615.79">
        <route edges="-137463475#2 -137463475#1 -137463475#0 137463477#0 137463477#1 25902677#1 137463478#1 137463478#1.19 137463478#1.104 137463478#2" />
    </vehicle>
    <vehicle id="bike_347" type="SPedelec_below_40" depart="22670.88">
        <route edges="-137463475#2 -137463475#1 -137463475#0 137463477#0 137463477#1 25902677#1 137463478#1 137463478#1.19 137463478#1.104 137463478#2" />
    </vehicle>
    <vehicle id="bike_340" type="SPedelec_below_40" depart="22724.57">
        <route edges="-137463475#2 -137463475#1 -137463475#0 137463477#0 137463477#1 25902677#1 137463478#1 137463478#1.19 137463478#1.104 137463478#2" />
    </vehicle>
    <vehicle id="bike_355" type="SPedelec_below_40" depart="22896.43">
        <route edges="-137463475#2 -137463475#1 -137463475#0 137463477#0 137463477#1 25902677#1 137463478#1 137463478#1.19 137463478#1.104 137463478#2" />
    </vehicle>
    <vehicle id="bike_384" type="SPedelec_below_40" depart="23039.63">
        <route edges="-137463475#2 -137463475#1 -137463475#0 137463477#0 137463477#1 25902677#1 137463478#1 137463478#1.19 137463478#1.104 137463478#2" />
    </vehicle>
    <vehicle id="bike_405" type="SPedelec_below_40" depart="23261.89">
        <route edges="-137463475#2 -137463475#1 -137463475#0 137463477#0 137463477#1 25902677#1 137463478#1 137463478#1.19 137463478#1.104 137463478#2" />
    </vehicle>
    <vehicle id="bike_352" type="SPedelec_below_40" depart="23526.09">
        <route edges="-137463475#2 -137463475#1 -137463475#0 137463477#0 137463477#1 25902677#1 137463478#1 137463478#1.19 137463478#1.104 137463478#2" />
    </vehicle>
    <vehicle id="bike_402" type="SPedelec_below_40" depart="23544.41">
        <route edges="-137463475#2 -137463475#1 -137463475#0 137463477#0 137463477#1 25902677#1 137463478#1 137463478#1.19 137463478#1.104 137463478#2" />
    </vehicle>
    <vehicle id="bike_411" type="SPedelec_below_40" depart="23551.99">
        <route edges="-137463475#2 -137463475#1 -137463475#0 137463477#0 137463477#1 25902677#1 137463478#1 137463478#1.19 137463478#1.104 137463478#2" />
    </vehicle>
    <vehicle id="bike_364" type="SPedelec_below_40" depart="23681.93">
        <route edges="-137463475#2 -137463475#1 -137463475#0 137463477#0 137463477#1 25902677#1 137463478#1 137463478#1.19 137463478#1.104 137463478#2" />
    </vehicle>
    <vehicle id="bike_421" type="SPedelec_below_40" depart="23748.87">
        <route edges="-137463475#2 -137463475#1 -137463475#0 137463477#0 137463477#1 25902677#1 137463478#1 137463478#1.19 137463478#1.104 137463478#2" />
    </vehicle>
    <vehicle id="bike_400" type="SPedelec_below_40" depart="23783.85">
        <route edges="-137463475#2 -137463475#1 -137463475#0 137463477#0 137463477#1 25902677#1 137463478#1 137463478#1.19 137463478#1.104 137463478#2" />
    </vehicle>
    <vehicle id="bike_337" type="SPedelec_below_40" depart="23913.93">
        <route edges="-137463475#2 -137463475#1 -137463475#0 137463477#0 137463477#1 25902677#1 137463478#1 137463478#1.19 137463478#1.104 137463478#2" />
    </vehicle>
    <vehicle id="bike_327" type="SPedelec_below_40" depart="23976.81">
        <route edges="-137463475#2 -137463475#1 -137463475#0 137463477#0 137463477#1 25902677#1 137463478#1 137463478#1.19 137463478#1.104 137463478#2" />
    </vehicle>
    <vehicle id="bike_376" type="SPedelec_below_40" depart="24134.71">
        <route edges="-137463475#2 -137463475#1 -137463475#0 137463477#0 137463477#1 25902677#1 137463478#1 137463478#1.19 137463478#1.104 137463478#2" />
    </vehicle>
    <vehicle id="bike_335" type="SPedelec_below_40" depart="24267.67">
        <route edges="-137463475#2 -137463475#1 -137463475#0 137463477#0 137463477#1 25902677#1 137463478#1 137463478#1.19 137463478#1.104 137463478#2" />
    </vehicle>
    <vehicle id="bike_374" type="SPedelec_below_40" depart="24515.46">
        <route edges="-137463475#2 -137463475#1 -137463475#0 137463477#0 137463477#1 25902677#1 137463478#1 137463478#1.19 137463478#1.104 137463478#2" />
    </vehicle>
    <vehicle id="bike_336" type="SPedelec_below_40" depart="24616.89">
        <route edges="-137463475#2 -137463475#1 -137463475#0 137463477#0 137463477#1 25902677#1 137463478#1 137463478#1.19 137463478#1.104 137463478#2" />
    </vehicle>
    <vehicle id="bike_357" type="SPedelec_below_40" depart="24704.14">
        <route edges="-137463475#2 -137463475#1 -137463475#0 137463477#0 137463477#1 25902677#1 137463478#1 137463478#1.19 137463478#1.104 137463478#2" />
    </vehicle>
    <vehicle id="bike_354" type="SPedelec_below_40" depart="24893.78">
        <route edges="-137463475#2 -137463475#1 -137463475#0 137463477#0 137463477#1 25902677#1 137463478#1 137463478#1.19 137463478#1.104 137463478#2" />
    </vehicle>
    <vehicle id="bike_389" type="SPedelec_below_40" depart="24956.19">
        <route edges="-137463475#2 -137463475#1 -137463475#0 137463477#0 137463477#1 25902677#1 137463478#1 137463478#1.19 137463478#1.104 137463478#2" />
    </vehicle>
    <vehicle id="bike_468" type="SPedelec_below_40" depart="25336.03">
        <route edges="-137463475#2 -137463475#1 -137463475#0 137463477#0 137463477#1 25902677#1 137463478#1 137463478#1.19 137463478#1.104 137463478#2" />
    </vehicle>
    <vehicle id="bike_465" type="SPedelec_below_40" depart="25579.49">
        <route edges="-137463475#2 -137463475#1 -137463475#0 137463477#0 137463477#1 25902677#1 137463478#1 137463478#1.19 137463478#1.104 137463478#2" />
    </vehicle>
    <vehicle id="bike_454" type="SPedelec_below_40" depart="26039.55">
        <route edges="-137463475#2 -137463475#1 -137463475#0 137463477#0 137463477#1 25902677#1 137463478#1 137463478#1.19 137463478#1.104 137463478#2" />
    </vehicle>
    <vehicle id="bike_459" type="SPedelec_below_40" depart="26681.54">
        <route edges="-137463475#2 -137463475#1 -137463475#0 137463477#0 137463477#1 25902677#1 137463478#1 137463478#1.19 137463478#1.104 137463478#2" />
    </vehicle>
    <vehicle id="bike_439" type="SPedelec_below_40" depart="26818.82">
        <route edges="-137463475#2 -137463475#1 -137463475#0 137463477#0 137463477#1 25902677#1 137463478#1 137463478#1.19 137463478#1.104 137463478#2" />
    </vehicle>
    <vehicle id="bike_522" type="SPedelec_below_40" depart="26883.86">
        <route edges="-137463475#2 -137463475#1 -137463475#0 137463477#0 137463477#1 25902677#1 137463478#1 137463478#1.19 137463478#1.104 137463478#2" />
    </vehicle>
    <vehicle id="bike_489" type="SPedelec_below_40" depart="27683.72">
        <route edges="-137463475#2 -137463475#1 -137463475#0 137463477#0 137463477#1 25902677#1 137463478#1 137463478#1.19 137463478#1.104 137463478#2" />
    </vehicle>
    <vehicle id="bike_490" type="SPedelec_below_40" depart="27731.19">
        <route edges="-137463475#2 -137463475#1 -137463475#0 137463477#0 137463477#1 25902677#1 137463478#1 137463478#1.19 137463478#1.104 137463478#2" />
    </vehicle>
    <vehicle id="bike_519" type="SPedelec_below_40" depart="27740.00">
        <route edges="-137463475#2 -137463475#1 -137463475#0 137463477#0 137463477#1 25902677#1 137463478#1 137463478#1.19 137463478#1.104 137463478#2" />
    </vehicle>
    <vehicle id="bike_472" type="SPedelec_below_40" depart="27794.02">
        <route edges="-137463475#2 -137463475#1 -137463475#0 137463477#0 137463477#1 25902677#1 137463478#1 137463478#1.19 137463478#1.104 137463478#2" />
    </vehicle>
    <vehicle id="bike_477" type="SPedelec_below_40" depart="27808.48">
        <route edges="-137463475#2 -137463475#1 -137463475#0 137463477#0 137463477#1 25902677#1 137463478#1 137463478#1.19 137463478#1.104 137463478#2" />
    </vehicle>
    <vehicle id="bike_491" type="SPedelec_below_40" depart="27856.69">
        <route edges="-137463475#2 -137463475#1 -137463475#0 137463477#0 137463477#1 25902677#1 137463478#1 137463478#1.19 137463478#1.104 137463478#2" />
    </vehicle>
    <vehicle id="bike_513" type="SPedelec_below_40" depart="27918.54">
        <route edges="-137463475#2 -137463475#1 -137463475#0 137463477#0 137463477#1 25902677#1 137463478#1 137463478#1.19 137463478#1.104 137463478#2" />
    </vehicle>
    <vehicle id="bike_508" type="SPedelec_below_40" depart="27999.62">
        <route edges="-137463475#2 -137463475#1 -137463475#0 137463477#0 137463477#1 25902677#1 137463478#1 137463478#1.19 137463478#1.104 137463478#2" />
    </vehicle>
    <vehicle id="bike_515" type="SPedelec_below_40" depart="28041.00">
        <route edges="-137463475#2 -137463475#1 -137463475#0 137463477#0 137463477#1 25902677#1 137463478#1 137463478#1.19 137463478#1.104 137463478#2" />
    </vehicle>
    <vehicle id="bike_481" type="SPedelec_below_40" depart="28121.48">
        <route edges="-137463475#2 -137463475#1 -137463475#0 137463477#0 137463477#1 25902677#1 137463478#1 137463478#1.19 137463478#1.104 137463478#2" />
    </vehicle>
    <vehicle id="bike_488" type="SPedelec_below_40" depart="28156.88">
        <route edges="-137463475#2 -137463475#1 -137463475#0 137463477#0 137463477#1 25902677#1 137463478#1 137463478#1.19 137463478#1.104 137463478#2" />
    </vehicle>
    <vehicle id="bike_524" type="SPedelec_below_40" depart="28181.51">
        <route edges="-137463475#2 -137463475#1 -137463475#0 137463477#0 137463477#1 25902677#1 137463478#1 137463478#1.19 137463478#1.104 137463478#2" />
    </vehicle>
    <vehicle id="bike_521" type="SPedelec_below_40" depart="28232.64">
        <route edges="-137463475#2 -137463475#1 -137463475#0 137463477#0 137463477#1 25902677#1 137463478#1 137463478#1.19 137463478#1.104 137463478#2" />
    </vehicle>
    <vehicle id="bike_510" type="SPedelec_below_40" depart="28360.79">
        <route edges="-137463475#2 -137463475#1 -137463475#0 137463477#0 137463477#1 25902677#1 137463478#1 137463478#1.19 137463478#1.104 137463478#2" />
    </vehicle>
    <vehicle id="bike_471" type="SPedelec_below_40" depart="28493.82">