<?xml version='1.0' encoding='UTF-8'?>
<routes xmlns:xsi="http://www.w3.org/2001/XMLSchema-instance" xsi:noNamespaceSchemaLocation="http://sumo.dlr.de/xsd/routes_file.xsd">

    <vType id="car" vClass="passenger" speedFactor="1.0" speedDev="0.0" sigma="0.0" tau="1.0">
        <param key="jmIgnoreFoeProb" value="1.0"/>
        <param key="jmIgnoreJunctionFoeProb" value="1.0"/>
    </vType>

    <!--<vehicle xmlns:xsi="http://www.w3.org/2001/XMLSchema-instance" id="0_0" depart="18.00" type="car">
        <route edges="31342064#0 31342064#2 305495773#0 305495773#2 266507551"/>
    </vehicle>-->
    <vehicle id="0_1" depart="39.24" type="car">
        <route edges="-137463475#2 -137463475#1 -137463475#0 137463477#0 137463477#1 25902677#1 137463478#1 137463478#1.19 137463478#1.104 137463478#2"/>
    </vehicle>
    <!--<vehicle xmlns:xsi="http://www.w3.org/2001/XMLSchema-instance" id="0_2" depart="63.37" type="car">
        <route edges="31342064#0 31342064#2 305495773#0 305495773#2 266507551"/>
    </vehicle>-->
    <!--<vehicle xmlns:xsi="http://www.w3.org/2001/XMLSchema-instance" id="0_3" depart="67.81" type="car">
        <route edges="31342064#0 31342064#2 31894763#0 137463475#0 137463475#1 137463475#2"/>
    </vehicle>-->
    <!--<vehicle xmlns:xsi="http://www.w3.org/2001/XMLSchema-instance" id="0_4" depart="122.96" type="car">
        <route edges="31342064#0 31342064#2 305495773#0 305495773#2 266507551"/>
    </vehicle>-->
    <vehicle id="0_9" depart="145.85" type="car">
        <route edges="-137463475#2 -137463475#1 -137463475#0 137463477#0 137463477#1 305495773#0 305495773#2 266507551"/>
    </vehicle>
    <!--<vehicle xmlns:xsi="http://www.w3.org/2001/XMLSchema-instance" id="0_7" depart="160.94" type="car">
        <route edges="31342064#0 31342064#2 305495773#0 305495773#2 266507551"/>
    </vehicle>-->
    <!--<vehicle xmlns:xsi="http://www.w3.org/2001/XMLSchema-instance" id="0_5" depart="162.46" type="car">
        <route edges="-137463478#2 -137463478#1 -137463478#1.16 25796398#0 25796398#1 305390325#0 305390325#2 305390325#3 266567304#0"/>
    </vehicle>-->
    <!--<vehicle xmlns:xsi="http://www.w3.org/2001/XMLSchema-instance" id="0_8" depart="169.84" type="car">
        <route edges="-137463478#2 -137463478#1 -137463478#1.16 25796398#0 25796398#1 31894763#0 137463475#0 137463475#1 137463475#2"/>
    </vehicle>-->
    <!--<vehicle xmlns:xsi="http://www.w3.org/2001/XMLSchema-instance" id="0_11" depart="188.16" type="car">
        <route edges="31342064#0 31342064#2 25902677#1 137463478#1 137463478#1.19 137463478#1.104 137463478#2"/>
    </vehicle>-->
    <!--<vehicle xmlns:xsi="http://www.w3.org/2001/XMLSchema-instance" id="0_10" depart="194.0" type="car">
        <route edges="31342064#0 31342064#2 31894763#0 137463475#0 137463475#1 137463475#2"/>
    </vehicle>-->
    <!--<vehicle xmlns:xsi="http://www.w3.org/2001/XMLSchema-instance" id="0_12" depart="205.70" type="car">
        <route edges="31342064#0 31342064#2 305495773#0 305495773#2 266507551"/>
    </vehicle>-->
    <!--<vehicle xmlns:xsi="http://www.w3.org/2001/XMLSchema-instance" id="0_13" depart="207.17" type="car">
        <route edges="31342064#0 31342064#2 305495773#0 305495773#2 266507551"/>
    </vehicle>-->
    <!--<vehicle xmlns:xsi="http://www.w3.org/2001/XMLSchema-instance" id="0_14" depart="225.42" type="car">
        <route edges="31342064#0 31342064#2 305495773#0 305495773#2 266507551"/>
    </vehicle>-->
    <vehicle id="0_15" depart="228.75" type="car">
        <route edges="-137463475#2 -137463475#1 -137463475#0 137463477#0 137463477#1 25902677#1 137463478#1 137463478#1.19 137463478#1.104 137463478#2"/>
    </vehicle>
    <!--<vehicle xmlns:xsi="http://www.w3.org/2001/XMLSchema-instance" id="0_16" depart="234.75" type="car">
        <route edges="-137463478#2 -137463478#1 -137463478#1.16 25796398#0 25796398#1 305495773#0 305495773#2 266507551"/>
    </vehicle>-->
    <!--<vehicle xmlns:xsi="http://www.w3.org/2001/XMLSchema-instance" id="0_17" depart="241.63" type="car">
        <route edges="31342064#0 31342064#2 31894763#0 137463475#0 137463475#1 137463475#2"/>
    </vehicle>-->
    <vehicle id="0_18" depart="250.98" type="car">
        <route edges="-137463475#2 -137463475#1 -137463475#0 137463477#0 137463477#1 305495773#0 305495773#2 266507551"/>
    </vehicle>
    <!--<vehicle xmlns:xsi="http://www.w3.org/2001/XMLSchema-instance" id="0_19" depart="251.60" type="car">
        <route edges="-137463478#2 -137463478#1 -137463478#1.16 25796398#0 25796398#1 31894763#0 137463475#0 137463475#1 137463475#2"/>
    </vehicle>-->
    <vehicle id="0_20" depart="255.53" type="car">
        <route edges="-137463475#2 -137463475#1 -137463475#0 137463477#0 137463477#1 25902677#1 137463478#1 137463478#1.19 137463478#1.104 137463478#2"/>
    </vehicle>
    <!--<vehicle xmlns:xsi="http://www.w3.org/2001/XMLSchema-instance" id="0_21" depart="265.76" type="car">
        <route edges="31342064#0 31342064#2 31894763#0 137463475#0 137463475#1 137463475#2"/>
    </vehicle>-->
    <!--<vehicle xmlns:xsi="http://www.w3.org/2001/XMLSchema-instance" id="0_22" depart="266.86" type="car">
        <route edges="31342064#0 31342064#2 25902677#1 137463478#1 137463478#1.19 137463478#1.104 137463478#2"/>
    </vehicle>-->
    <!--<vehicle xmlns:xsi="http://www.w3.org/2001/XMLSchema-instance" id="0_23" depart="274.83" type="car">
        <route edges="31342064#0 31342064#2 31894763#0 137463475#0 137463475#1 137463475#2"/>
    </vehicle>-->
    <!--<vehicle xmlns:xsi="http://www.w3.org/2001/XMLSchema-instance" id="0_24" depart="275.13" type="car">
        <route edges="814691984#0 814691984#1 25902677#1 137463478#1 137463478#1.19 137463478#1.104 137463478#2"/>
    </vehicle>-->
    <vehicle id="0_25" depart="277.25" type="car">
        <route edges="-137463475#2 -137463475#1 -137463475#0 137463477#0 137463477#1 305495773#0 305495773#2 266507551"/>
    </vehicle>
    <!--<vehicle xmlns:xsi="http://www.w3.org/2001/XMLSchema-instance" id="0_26" depart="290.30" type="car">
        <route edges="31342064#0 31342064#2 305495773#0 305495773#2 266507551"/>
    </vehicle>-->
    <vehicle id="0_27" depart="297.68" type="car">
        <route edges="-137463475#2 -137463475#1 -137463475#0 137463477#0 137463477#1 305495773#0 305495773#2 266507551"/>
    </vehicle>
    <!--<vehicle xmlns:xsi="http://www.w3.org/2001/XMLSchema-instance" id="0_29" depart="297.8" type="car">
        <route edges="814691984#0 814691984#1 25902677#1 137463478#1 137463478#1.19 137463478#1.104 137463478#2"/>
    </vehicle>-->
    <!--<vehicle xmlns:xsi="http://www.w3.org/2001/XMLSchema-instance" id="0_28" depart="315.07" type="car">
        <route edges="814691984#0 814691984#1 305390325#0 305390325#2 305390325#3 266567304#0"/>
    </vehicle>-->
    <vehicle id="0_30" depart="329.82" type="car">
        <route edges="-137463475#2 -137463475#1 -137463475#0 137463477#0 137463477#1 305495773#0 305495773#2 266507551"/>
    </vehicle>
    <!--<vehicle xmlns:xsi="http://www.w3.org/2001/XMLSchema-instance" id="0_31" depart="335.05" type="car">
        <route edges="-137463478#2 -137463478#1 -137463478#1.16 25796398#0 25796398#1 305495773#0 305495773#2 266507551"/>
    </vehicle>-->
    <!--<vehicle xmlns:xsi="http://www.w3.org/2001/XMLSchema-instance" id="0_32" depart="335.42" type="car">
        <route edges="814691984#0 814691984#1 305390325#0 305390325#2 305390325#3 266567304#0"/>
    </vehicle>-->
    <vehicle id="0_33" depart="355.22" type="car">
        <route edges="-137463475#2 -137463475#1 -137463475#0 137463477#0 137463477#1 25902677#1 137463478#1 137463478#1.19 137463478#1.104 137463478#2"/>
    </vehicle>
    <!--<vehicle xmlns:xsi="http://www.w3.org/2001/XMLSchema-instance" id="0_34" depart="357.81" type="car">
        <route edges="-137463478#2 -137463478#1 -137463478#1.16 25796398#0 25796398#1 31894763#0 137463475#0 137463475#1 137463475#2"/>
    </vehicle>-->
    <!--<vehicle xmlns:xsi="http://www.w3.org/2001/XMLSchema-instance" id="0_35" depart="364.06" type="car">
        <route edges="814691984#0 814691984#1 25902677#1 137463478#1 137463478#1.19 137463478#1.104 137463478#2"/>
    </vehicle>-->
    <!--<vehicle xmlns:xsi="http://www.w3.org/2001/XMLSchema-instance" id="0_36" depart="390.95" type="car">
        <route edges="31342064#0 31342064#2 305495773#0 305495773#2 266507551"/>
    </vehicle>-->
    <vehicle id="0_37" depart="403.58" type="car">
        <route edges="-137463475#2 -137463475#1 -137463475#0 137463477#0 137463477#1 305390325#0 305390325#2 305390325#3 266567304#0"/>
    </vehicle>
    <!--<vehicle xmlns:xsi="http://www.w3.org/2001/XMLSchema-instance" id="0_38" depart="422.95" type="car">
        <route edges="-137463478#2 -137463478#1 -137463478#1.16 25796398#0 25796398#1 31894763#0 137463475#0 137463475#1 137463475#2"/>
    </vehicle>-->
    <!--<vehicle xmlns:xsi="http://www.w3.org/2001/XMLSchema-instance" id="0_39" depart="436.75" type="car">
        <route edges="31342064#0 31342064#2 305495773#0 305495773#2 266507551"/>
    </vehicle>-->
    <vehicle id="0_40" depart="437.05" type="car">
        <route edges="-137463475#2 -137463475#1 -137463475#0 137463477#0 137463477#1 305495773#0 305495773#2 266507551"/>
    </vehicle>
    <!--<vehicle xmlns:xsi="http://www.w3.org/2001/XMLSchema-instance" id="0_41" depart="438.07" type="car">
        <route edges="-137463478#2 -137463478#1 -137463478#1.16 25796398#0 25796398#1 31894763#0 137463475#0 137463475#1 137463475#2"/>
    </vehicle>-->
    <!--<vehicle xmlns:xsi="http://www.w3.org/2001/XMLSchema-instance" id="0_42" depart="444.50" type="car">
        <route edges="814691984#0 814691984#1 25902677#1 137463478#1 137463478#1.19 137463478#1.104 137463478#2"/>
    </vehicle>-->
    <!--<vehicle xmlns:xsi="http://www.w3.org/2001/XMLSchema-instance" id="0_43" depart="449.27" type="car">
        <route edges="-137463478#2 -137463478#1 -137463478#1.16 25796398#0 25796398#1 305390325#0 305390325#2 305390325#3 266567304#0"/>
    </vehicle>-->
    <!--<vehicle xmlns:xsi="http://www.w3.org/2001/XMLSchema-instance" id="0_44" depart="457.93" type="car">
        <route edges="31342064#0 31342064#2 305495773#0 305495773#2 266507551"/>
    </vehicle>-->
    <!--<vehicle xmlns:xsi="http://www.w3.org/2001/XMLSchema-instance" id="0_45" depart="464.97" type="car">
        <route edges="31342064#0 31342064#2 31894763#0 137463475#0 137463475#1 137463475#2"/>
    </vehicle>-->
    <vehicle id="0_46" depart="465.98" type="car">
        <route edges="-137463475#2 -137463475#1 -137463475#0 137463477#0 137463477#1 305495773#0 305495773#2 266507551"/>
    </vehicle>
    <!--<vehicle xmlns:xsi="http://www.w3.org/2001/XMLSchema-instance" id="0_47" depart="487.30" type="car">
        <route edges="-137463478#2 -137463478#1 -137463478#1.16 25796398#0 25796398#1 305390325#0 305390325#2 305390325#3 266567304#0"/>
    </vehicle>-->
    <vehicle id="0_48" depart="488.29" type="car">
        <route edges="-137463475#2 -137463475#1 -137463475#0 137463477#0 137463477#1 25902677#1 137463478#1 137463478#1.19 137463478#1.104 137463478#2"/>
    </vehicle>
    <vehicle id="0_49" depart="497.49" type="car">
        <route edges="-137463475#2 -137463475#1 -137463475#0 137463477#0 137463477#1 25902677#1 137463478#1 137463478#1.19 137463478#1.104 137463478#2"/>
    </vehicle>
    <!--<vehicle xmlns:xsi="http://www.w3.org/2001/XMLSchema-instance" id="0_50" depart="497.54" type="car">
        <route edges="-137463478#2 -137463478#1 -137463478#1.16 25796398#0 25796398#1 31894763#0 137463475#0 137463475#1 137463475#2"/>
    </vehicle>-->
    <vehicle id="0_51" depart="502.46" type="car">
        <route edges="-137463475#2 -137463475#1 -137463475#0 137463477#0 137463477#1 305390325#0 305390325#2 305390325#3 266567304#0"/>
    </vehicle>
    <!--<vehicle xmlns:xsi="http://www.w3.org/2001/XMLSchema-instance" id="0_52" depart="514.80" type="car">
        <route edges="-137463478#2 -137463478#1 -137463478#1.16 25796398#0 25796398#1 31894763#0 137463475#0 137463475#1 137463475#2"/>
    </vehicle>-->
    <!--<vehicle xmlns:xsi="http://www.w3.org/2001/XMLSchema-instance" id="0_53" depart="515.06" type="car">
        <route edges="31342064#0 31342064#2 305495773#0 305495773#2 266507551"/>
    </vehicle>-->
    <vehicle id="0_54" depart="522.62" type="car">
        <route edges="-137463475#2 -137463475#1 -137463475#0 137463477#0 137463477#1 25902677#1 137463478#1 137463478#1.19 137463478#1.104 137463478#2"/>
    </vehicle>
    <!--<vehicle xmlns:xsi="http://www.w3.org/2001/XMLSchema-instance" id="0_55" depart="530.88" type="car">
        <route edges="814691984#0 814691984#1 305390325#0 305390325#2 305390325#3 266567304#0"/>
    </vehicle>-->
    <!--<vehicle xmlns:xsi="http://www.w3.org/2001/XMLSchema-instance" id="0_56" depart="572.70" type="car">
        <route edges="31342064#0 31342064#2 305495773#0 305495773#2 266507551"/>
    </vehicle>-->
    <!--<vehicle xmlns:xsi="http://www.w3.org/2001/XMLSchema-instance" id="0_57" depart="580.59" type="car">
        <route edges="-137463478#2 -137463478#1 -137463478#1.16 25796398#0 25796398#1 305390325#0 305390325#2 305390325#3 266567304#0"/>
    </vehicle>-->
    <!--<vehicle xmlns:xsi="http://www.w3.org/2001/XMLSchema-instance" id="0_58" depart="602.03" type="car">
        <route edges="31342064#0 31342064#2 31894763#0 137463475#0 137463475#1 137463475#2"/>
    </vehicle>-->
    <!--<vehicle xmlns:xsi="http://www.w3.org/2001/XMLSchema-instance" id="0_59" depart="602.09" type="car">
        <route edges="31342064#0 31342064#2 305495773#0 305495773#2 266507551"/>
    </vehicle>-->
    <vehicle id="0_60" depart="604.03" type="car"> 
        <route edges="-137463475#2 -137463475#1 -137463475#0 137463477#0 137463477#1 305495773#0 305495773#2 266507551"/>
    </vehicle>
    <!--<vehicle xmlns:xsi="http://www.w3.org/2001/XMLSchema-instance" id="0_61" depart="608.12" type="car">
        <route edges="31342064#0 31342064#2 305495773#0 305495773#2 266507551"/>
    </vehicle>-->
    <vehicle id="0_62" depart="626.21" type="car">
        <route edges="-137463475#2 -137463475#1 -137463475#0 137463477#0 137463477#1 305390325#0 305390325#2 305390325#3 266567304#0"/>
    </vehicle>
    <!--<vehicle xmlns:xsi="http://www.w3.org/2001/XMLSchema-instance" id="0_63" depart="630.32" type="car">
        <route edges="814691984#0 814691984#1 31894763#0 137463475#0 137463475#1 137463475#2"/>
    </vehicle>-->
    <!--<vehicle xmlns:xsi="http://www.w3.org/2001/XMLSchema-instance" id="0_64" depart="638.02" type="car">
        <route edges="-137463478#2 -137463478#1 -137463478#1.16 25796398#0 25796398#1 31894763#0 137463475#0 137463475#1 137463475#2"/>
    </vehicle>-->
    <!--<vehicle xmlns:xsi="http://www.w3.org/2001/XMLSchema-instance" id="0_65" depart="648.85" type="car">
        <route edges="814691984#0 814691984#1 305390325#0 305390325#2 305390325#3 266567304#0"/>
    </vehicle>-->
    <!--<vehicle xmlns:xsi="http://www.w3.org/2001/XMLSchema-instance" id="0_66" depart="661.69" type="car">
        <route edges="31342064#0 31342064#2 31894763#0 137463475#0 137463475#1 137463475#2"/>
    </vehicle>-->
    <vehicle id="0_67" depart="669.75" type="car">
        <route edges="-137463475#2 -137463475#1 -137463475#0 137463477#0 137463477#1 305495773#0 305495773#2 266507551"/>
    </vehicle>
    <!--<vehicle xmlns:xsi="http://www.w3.org/2001/XMLSchema-instance" id="0_68" depart="672.95" type="car">
        <route edges="-137463478#2 -137463478#1 -137463478#1.16 25796398#0 25796398#1 305495773#0 305495773#2 266507551"/>
    </vehicle>-->
    <vehicle id="0_69" depart="691.70" type="car">
        <route edges="-137463475#2 -137463475#1 -137463475#0 137463477#0 137463477#1 25902677#1 137463478#1 137463478#1.19 137463478#1.104 137463478#2"/>
    </vehicle>
    <vehicle id="0_70" depart="706.81" type="car">
        <route edges="-137463475#2 -137463475#1 -137463475#0 137463477#0 137463477#1 305495773#0 305495773#2 266507551"/>
    </vehicle>
    <!--<vehicle xmlns:xsi="http://www.w3.org/2001/XMLSchema-instance" id="0_71" depart="753.94" type="car">
        <route edges="-137463478#2 -137463478#1 -137463478#1.16 25796398#0 25796398#1 31894763#0 137463475#0 137463475#1 137463475#2"/>
    </vehicle>-->
    <!--<vehicle xmlns:xsi="http://www.w3.org/2001/XMLSchema-instance" id="0_72" depart="759.79" type="car">
        <route edges="-137463478#2 -137463478#1 -137463478#1.16 25796398#0 25796398#1 31894763#0 137463475#0 137463475#1 137463475#2"/>
    </vehicle>-->
    <!--<vehicle xmlns:xsi="http://www.w3.org/2001/XMLSchema-instance" id="0_73" depart="762.00" type="car">
        <route edges="814691984#0 814691984#1 31894763#0 137463475#0 137463475#1 137463475#2"/>
    </vehicle>-->
    <!--<vehicle xmlns:xsi="http://www.w3.org/2001/XMLSchema-instance" id="0_74" depart="763.80" type="car">
        <route edges="814691984#0 814691984#1 25902677#1 137463478#1 137463478#1.19 137463478#1.104 137463478#2"/>
    </vehicle>-->
    <!--<vehicle xmlns:xsi="http://www.w3.org/2001/XMLSchema-instance" id="0_75" depart="765.84" type="car">
        <route edges="-137463478#2 -137463478#1 -137463478#1.16 25796398#0 25796398#1 31894763#0 137463475#0 137463475#1 137463475#2"/>
    </vehicle>-->
    <!--<vehicle xmlns:xsi="http://www.w3.org/2001/XMLSchema-instance" id="0_76" depart="770.69" type="car">
        <route edges="-137463478#2 -137463478#1 -137463478#1.16 25796398#0 25796398#1 31894763#0 137463475#0 137463475#1 137463475#2"/>
    </vehicle>-->
    <!--<vehicle xmlns:xsi="http://www.w3.org/2001/XMLSchema-instance" id="0_77" depart="777.75" type="car">
        <route edges="31342064#0 31342064#2 305495773#0 305495773#2 266507551"/>
    </vehicle>-->
    <!--<vehicle xmlns:xsi="http://www.w3.org/2001/XMLSchema-instance" id="0_78" depart="794.37" type="car">
        <route edges="31342064#0 31342064#2 305495773#0 305495773#2 266507551"/>
    </vehicle>-->
    <vehicle id="0_79" depart="795.14" type="car">
        <route edges="-137463475#2 -137463475#1 -137463475#0 137463477#0 137463477#1 25902677#1 137463478#1 137463478#1.19 137463478#1.104 137463478#2"/>
    </vehicle>
    <vehicle id="0_80" depart="798.99" type="car">
        <route edges="-137463475#2 -137463475#1 -137463475#0 137463477#0 137463477#1 25902677#1 137463478#1 137463478#1.19 137463478#1.104 137463478#2"/>
    </vehicle>
    <vehicle id="0_81" depart="815.49" type="car">
        <route edges="-137463475#2 -137463475#1 -137463475#0 137463477#0 137463477#1 25902677#1 137463478#1 137463478#1.19 137463478#1.104 137463478#2"/>
    </vehicle>
    <!--<vehicle xmlns:xsi="http://www.w3.org/2001/XMLSchema-instance" id="0_82" depart="837.02" type="car">
        <route edges="814691984#0 814691984#1 25902677#1 137463478#1 137463478#1.19 137463478#1.104 137463478#2"/>
    </vehicle>-->
    <!--<vehicle xmlns:xsi="http://www.w3.org/2001/XMLSchema-instance" id="0_83" depart="842.07" type="car">
        <route edges="31342064#0 31342064#2 31894763#0 137463475#0 137463475#1 137463475#2"/>
    </vehicle>-->
    <!--<vehicle xmlns:xsi="http://www.w3.org/2001/XMLSchema-instance" id="0_84" depart="846.12" type="car">
        <route edges="-137463478#2 -137463478#1 -137463478#1.16 25796398#0 25796398#1 305390325#0 305390325#2 305390325#3 266567304#0"/>
    </vehicle>-->
    <!--<vehicle xmlns:xsi="http://www.w3.org/2001/XMLSchema-instance" id="0_85" depart="846.47" type="car">
        <route edges="31342064#0 31342064#2 305495773#0 305495773#2 266507551"/>
    </vehicle>-->
    <!--<vehicle xmlns:xsi="http://www.w3.org/2001/XMLSchema-instance" id="0_86" depart="857.76" type="car">
        <route edges="814691984#0 814691984#1 305390325#0 305390325#2 305390325#3 266567304#0"/>
    </vehicle>-->
    <vehicle id="0_87" depart="868.88" type="car">
        <route edges="-137463475#2 -137463475#1 -137463475#0 137463477#0 137463477#1 25902677#1 137463478#1 137463478#1.19 137463478#1.104 137463478#2"/>
    </vehicle>
    <!--<vehicle xmlns:xsi="http://www.w3.org/2001/XMLSchema-instance" id="0_88" depart="876.30" type="car">
        <route edges="31342064#0 31342064#2 305495773#0 305495773#2 266507551"/>
    </vehicle>-->
    <vehicle id="0_89" depart="881.00" type="car">
        <route edges="-137463475#2 -137463475#1 -137463475#0 137463477#0 137463477#1 25902677#1 137463478#1 137463478#1.19 137463478#1.104 137463478#2"/>
    </vehicle>
    <!--<vehicle xmlns:xsi="http://www.w3.org/2001/XMLSchema-instance" id="0_90" depart="882.30" type="car">
        <route edges="31342064#0 31342064#2 31894763#0 137463475#0 137463475#1 137463475#2"/>
    </vehicle>-->
    <!--<vehicle xmlns:xsi="http://www.w3.org/2001/XMLSchema-instance" id="0_91" depart="883.95" type="car">
        <route edges="-137463478#2 -137463478#1 -137463478#1.16 25796398#0 25796398#1 305390325#0 305390325#2 305390325#3 266567304#0"/>
    </vehicle>-->
    <vehicle id="0_92" depart="895.01" type="car">
        <route edges="-137463475#2 -137463475#1 -137463475#0 137463477#0 137463477#1 25902677#1 137463478#1 137463478#1.19 137463478#1.104 137463478#2"/>
    </vehicle>
    <!--<vehicle xmlns:xsi="http://www.w3.org/2001/XMLSchema-instance" id="0_93" depart="895.10" type="car">
        <route edges="-137463478#2 -137463478#1 -137463478#1.16 25796398#0 25796398#1 305495773#0 305495773#2 266507551"/>
    </vehicle>-->
    <!--<vehicle xmlns:xsi="http://www.w3.org/2001/XMLSchema-instance" id="0_94" depart="896.63" type="car">
        <route edges="31342064#0 31342064#2 25902677#1 137463478#1 137463478#1.19 137463478#1.104 137463478#2"/>
    </vehicle>-->

    <!--<vehicle xmlns:xsi="http://www.w3.org/2001/XMLSchema-instance" id="900_0" depart="913.09" type="car">
        <route edges="814691984#0 814691984#1 305390325#0 305390325#2 305390325#3 266567304#0"/>
    </vehicle>-->
    <!--<vehicle xmlns:xsi="http://www.w3.org/2001/XMLSchema-instance" id="900_1" depart="918.06" type="car">
        <route edges="814691984#0 814691984#1 25902677#1 137463478#1 137463478#1.19 137463478#1.104 137463478#2"/>
    </vehicle>-->
    <!--<vehicle xmlns:xsi="http://www.w3.org/2001/XMLSchema-instance" id="900_2" depart="923.73" type="car">
        <route edges="31342064#0 31342064#2 25902677#1 137463478#1 137463478#1.19 137463478#1.104 137463478#2"/>
    </vehicle>-->
    <!--<vehicle xmlns:xsi="http://www.w3.org/2001/XMLSchema-instance" id="900_3" depart="925.90" type="car">
        <route edges="814691984#0 814691984#1 305390325#0 305390325#2 305390325#3 266567304#0"/>
    </vehicle>-->
    <!--<vehicle xmlns:xsi="http://www.w3.org/2001/XMLSchema-instance" id="900_4" depart="933.01" type="car">
        <route edges="31342064#0 31342064#2 305495773#0 305495773#2 266507551"/>
    </vehicle>-->
    <!--<vehicle xmlns:xsi="http://www.w3.org/2001/XMLSchema-instance" id="900_5" depart="935.38" type="car">
        <route edges="31342064#0 31342064#2 31894763#0 137463475#0 137463475#1 137463475#2"/>
    </vehicle>-->
    <vehicle id="900_6" depart="936.78" type="car">
        <route edges="-137463475#2 -137463475#1 -137463475#0 137463477#0 137463477#1 305495773#0 305495773#2 266507551"/>
    </vehicle>
    <!--<vehicle xmlns:xsi="http://www.w3.org/2001/XMLSchema-instance" id="900_7" depart="940.70" type="car">
        <route edges="31342064#0 31342064#2 305495773#0 305495773#2 266507551"/>
    </vehicle>-->
    <vehicle id="900_8" depart="950.74" type="car">
        <route edges="-137463475#2 -137463475#1 -137463475#0 137463477#0 137463477#1 25902677#1 137463478#1 137463478#1.19 137463478#1.104 137463478#2"/>
    </vehicle>
    <!--<vehicle xmlns:xsi="http://www.w3.org/2001/XMLSchema-instance" id="900_9" depart="954.97" type="car">
        <route edges="-137463478#2 -137463478#1 -137463478#1.16 25796398#0 25796398#1 31894763#0 137463475#0 137463475#1 137463475#2"/>
    </vehicle>-->
    <vehicle id="900_10" depart="968.28" type="car">
        <route edges="-137463475#2 -137463475#1 -137463475#0 137463477#0 137463477#1 305390325#0 305390325#2 305390325#3 266567304#0"/>
    </vehicle>
    <!--<vehicle xmlns:xsi="http://www.w3.org/2001/XMLSchema-instance" id="900_11" depart="973.58" type="car">
        <route edges="814691984#0 814691984#1 31894763#0 137463475#0 137463475#1 137463475#2"/>
    </vehicle>-->
    <!--<vehicle xmlns:xsi="http://www.w3.org/2001/XMLSchema-instance" id="900_12" depart="979.83" type="car">
        <route edges="-137463478#2 -137463478#1 -137463478#1.16 25796398#0 25796398#1 305495773#0 305495773#2 266507551"/>
    </vehicle>-->
    <!--<vehicle xmlns:xsi="http://www.w3.org/2001/XMLSchema-instance" id="900_13" depart="996.45" type="car">
        <route edges="-137463478#2 -137463478#1 -137463478#1.16 25796398#0 25796398#1 31894763#0 137463475#0 137463475#1 137463475#2"/>
    </vehicle>-->
    <vehicle id="900_14" depart="1002.20" type="car">
        <route edges="-137463475#2 -137463475#1 -137463475#0 137463477#0 137463477#1 25902677#1 137463478#1 137463478#1.19 137463478#1.104 137463478#2"/>
    </vehicle>
    <!--<vehicle xmlns:xsi="http://www.w3.org/2001/XMLSchema-instance" id="900_15" depart="1008.57" type="car">
        <route edges="31342064#0 31342064#2 305495773#0 305495773#2 266507551"/>
    </vehicle>-->
    <!--<vehicle xmlns:xsi="http://www.w3.org/2001/XMLSchema-instance" id="900_16" depart="1015.24" type="car">
        <route edges="31342064#0 31342064#2 305495773#0 305495773#2 266507551"/>
    </vehicle>-->
    <!--<vehicle xmlns:xsi="http://www.w3.org/2001/XMLSchema-instance" id="900_17" depart="1015.99" type="car">
        <route edges="31342064#0 31342064#2 25902677#1 137463478#1 137463478#1.19 137463478#1.104 137463478#2"/>
    </vehicle>-->
    <!--<vehicle xmlns:xsi="http://www.w3.org/2001/XMLSchema-instance" id="900_18" depart="1016.24" type="car">
        <route edges="31342064#0 31342064#2 31894763#0 137463475#0 137463475#1 137463475#2"/>
    </vehicle>-->
    <!--<vehicle xmlns:xsi="http://www.w3.org/2001/XMLSchema-instance" id="900_19" depart="1020.61" type="car">
        <route edges="-137463478#2 -137463478#1 -137463478#1.16 25796398#0 25796398#1 31894763#0 137463475#0 137463475#1 137463475#2"/>
    </vehicle>-->
    <!--<vehicle xmlns:xsi="http://www.w3.org/2001/XMLSchema-instance" id="900_20" depart="1022.73" type="car">
        <route edges="-137463478#2 -137463478#1 -137463478#1.16 25796398#0 25796398#1 305390325#0 305390325#2 305390325#3 266567304#0"/>
    </vehicle>-->
    <vehicle id="900_21" depart="1024.94" type="car">
        <route edges="-137463475#2 -137463475#1 -137463475#0 137463477#0 137463477#1 25902677#1 137463478#1 137463478#1.19 137463478#1.104 137463478#2"/>
    </vehicle>
    <vehicle id="900_22" depart="1032.37" type="car">
        <route edges="-137463475#2 -137463475#1 -137463475#0 137463477#0 137463477#1 305390325#0 305390325#2 305390325#3 266567304#0"/>
    </vehicle>
    <!--<vehicle xmlns:xsi="http://www.w3.org/2001/XMLSchema-instance" id="900_23" depart="1035.38" type="car">
        <route edges="31342064#0 31342064#2 31894763#0 137463475#0 137463475#1 137463475#2"/>
    </vehicle>-->
    <!--<vehicle xmlns:xsi="http://www.w3.org/2001/XMLSchema-instance" id="900_24" depart="1036.71" type="car">
        <route edges="814691984#0 814691984#1 305390325#0 305390325#2 305390325#3 266567304#0"/>
    </vehicle>-->
    <!--<vehicle xmlns:xsi="http://www.w3.org/2001/XMLSchema-instance" id="900_25" depart="1052.04" type="car">
        <route edges="31342064#0 31342064#2 305495773#0 305495773#2 266507551"/>
    </vehicle>-->
    <vehicle id="900_26" depart="1055.09" type="car">
        <route edges="-137463475#2 -137463475#1 -137463475#0 137463477#0 137463477#1 305390325#0 305390325#2 305390325#3 266567304#0"/>
    </vehicle>
    <vehicle id="900_27" depart="1059.31" type="car">
        <route edges="-137463475#2 -137463475#1 -137463475#0 137463477#0 137463477#1 305390325#0 305390325#2 305390325#3 266567304#0"/>
    </vehicle>
    <!--<vehicle xmlns:xsi="http://www.w3.org/2001/XMLSchema-instance" id="900_28" depart="1063.69" type="car">
        <route edges="814691984#0 814691984#1 305390325#0 305390325#2 305390325#3 266567304#0"/>
    </vehicle>-->
    <!--<vehicle xmlns:xsi="http://www.w3.org/2001/XMLSchema-instance" id="900_29" depart="1066.07" type="car">
        <route edges="-137463478#2 -137463478#1 -137463478#1.16 25796398#0 25796398#1 31894763#0 137463475#0 137463475#1 137463475#2"/>
    </vehicle>-->
    <!--<vehicle xmlns:xsi="http://www.w3.org/2001/XMLSchema-instance" id="900_30" depart="1073.06" type="car">
        <route edges="31342064#0 31342064#2 305495773#0 305495773#2 266507551"/>
    </vehicle>-->
    <vehicle id="900_31" depart="1085.70" type="car">
        <route edges="-137463475#2 -137463475#1 -137463475#0 137463477#0 137463477#1 305495773#0 305495773#2 266507551"/>
    </vehicle>
    <!--<vehicle xmlns:xsi="http://www.w3.org/2001/XMLSchema-instance" id="900_32" depart="1088.41" type="car">
        <route edges="-137463478#2 -137463478#1 -137463478#1.16 25796398#0 25796398#1 31894763#0 137463475#0 137463475#1 137463475#2"/>
    </vehicle>-->
    <!--<vehicle xmlns:xsi="http://www.w3.org/2001/XMLSchema-instance" id="900_33" depart="1091.67" type="car">
        <route edges="31342064#0 31342064#2 31894763#0 137463475#0 137463475#1 137463475#2"/>
    </vehicle>-->
    <!--<vehicle xmlns:xsi="http://www.w3.org/2001/XMLSchema-instance" id="900_34" depart="1105.78" type="car">
        <route edges="814691984#0 814691984#1 25902677#1 137463478#1 137463478#1.19 137463478#1.104 137463478#2"/>
    </vehicle>-->
    <!--<vehicle xmlns:xsi="http://www.w3.org/2001/XMLSchema-instance" id="900_35" depart="1116.13" type="car">
        <route edges="-137463478#2 -137463478#1 -137463478#1.16 25796398#0 25796398#1 305495773#0 305495773#2 266507551"/>
    </vehicle>-->
    <!--<vehicle xmlns:xsi="http://www.w3.org/2001/XMLSchema-instance" id="900_36" depart="1118.22" type="car">