<?xml version="1.0" encoding="UTF-8"?>

<!-- generated on 2026-01-24 13:55:04 by Eclipse SUMO netedit Version 1.23.0
<neteditConfiguration xmlns:xsi="http://www.w3.org/2001/XMLSchema-instance" xsi:noNamespaceSchemaLocation="http://sumo.dlr.de/xsd/neteditConfiguration.xsd">

    <input>
        <sumocfg-file value="H:\ingolstadt_push\Ingolstadt_tiny_December\test.sumocfg"/>
        <route-files value="H:/ingolstadt_push/Ingolstadt_tiny_December/routes/traffic_modified.rou.xml, H:/ingolstadt_push/Ingolstadt_tiny_December/routes/bike_routes_12H.rou.xml"/>
        <sumo-net-file value="H:/ingolstadt_push/Ingolstadt_tiny_December/net/ingolstadt_tiny_modified.net.xml"/>
    </input>

    <output>
        <output-file value="H:/ingolstadt_push/Ingolstadt_tiny_December/net/ingolstadt_tiny_modified.net.xml"/>
        <output.street-names value="true"/>
    </output>

    <processing>
        <geometry.min-radius.fix.railways value="false"/>
        <geometry.avoid-overlap value="false"/>
        <geometry.max-grade.fix value="false"/>
        <offset.disable-normalization value="true"/>
        <lefthand value="0"/>
    </processing>

    <junctions>
        <no-internal-links value="false"/>
        <no-turnarounds value="true"/>
        <junctions.corner-detail value="5"/>
        <junctions.limit-turn-speed value="5.50"/>
        <rectangular-lane-cut value="0"/>
    </junctions>

    <pedestrian>
        <walkingareas value="1"/>
    </pedestrian>

    <netedit>
        <ignore.routeelements value="false"/>
    </netedit>

</neteditConfiguration>
-->

<net version="1.20" junctionCornerDetail="5" walkingareas="true" limitTurnSpeed="5.50" avoidOverlap="0" xmlns:xsi="http://www.w3.org/2001/XMLSchema-instance" xsi:noNamespaceSchemaLocation="http://sumo.dlr.de/xsd/net_file.xsd">

    <location netOffset="-672401.23,-5399632.08" convBoundary="6517.60,5060.12,6957.62,5656.10" origBoundary="11.274814,48.715766,11.611141,48.814343" projParameter="+proj=utm +zone=32 +ellps=WGS84 +datum=WGS84 +units=m +no_defs"/>

    <type id="cycleway.track|highway.secondary" priority="11" numLanes="2" speed="13.89" disallow="pedestrian tram rail_urban rail rail_electric ship" oneway="1" sidewalkWidth="-1.00" bikeLaneWidth="-1.00"/>
    <type id="highway.secondary" priority="11" numLanes="2" speed="13.89" disallow="pedestrian tram rail_urban rail rail_electric ship" oneway="1" sidewalkWidth="-1.00"/>

    <edge id=":1315532866_0" function="internal">
        <lane id=":1315532866_0_0" index="0" allow="bicycle" speed="13.89" length="7.62" width="2.00" shape="6911.55,5344.24 6913.81,5344.90 6915.47,5345.03 6917.10,5345.23 6919.27,5346.10"/>
        <lane id=":1315532866_0_1" index="1" disallow="pedestrian bicycle tram rail_urban rail rail_electric rail_fast ship cable_car subway" speed="13.89" length="7.62" shape="6910.56,5346.64 6912.76,5347.28 6914.37,5347.39 6915.95,5347.56 6918.05,5348.40"/>
        <lane id=":1315532866_0_2" index="2" disallow="pedestrian bicycle tram rail_urban rail rail_electric rail_fast ship cable_car subway" speed="13.89" length="7.62" shape="6909.35,5349.60 6911.46,5350.20 6913.01,5350.29 6914.53,5350.43 6916.55,5351.22"/>
        <lane id=":1315532866_0_3" index="3" disallow="pedestrian bicycle tram rail_urban rail rail_electric rail_fast ship cable_car subway" speed="13.89" length="7.62" shape="6909.35,5349.60 6911.20,5350.64 6912.26,5351.70 6913.28,5352.83 6915.04,5354.04"/>
    </edge>
    <edge id=":1315532866_w0" function="walkingarea">
        <lane id=":1315532866_w0_0" index="0" allow="pedestrian" speed="2.78" length="8.15" width="2.00" shape="6919.74,5345.22 6920.68,5343.45 6919.09,5342.74 6917.84,5342.42 6916.75,5342.31 6915.64,5342.24 6914.35,5342.01 6912.68,5341.46 6911.93,5343.31 6913.55,5343.85 6914.82,5344.06 6915.90,5344.13 6916.97,5344.22 6918.19,5344.53"/>
    </edge>
    <edge id=":1507762172_0" function="internal">
        <lane id=":1507762172_0_0" index="0" allow="bicycle" speed="13.89" length="1.22" width="1.50" shape="6746.69,5242.66 6747.79,5243.20"/>
        <lane id=":1507762172_0_1" index="1" disallow="pedestrian bicycle tram rail_urban rail rail_electric rail_fast ship cable_car subway" speed="13.89" length="1.22" shape="6744.36,5242.31 6745.47,5242.83"/>
        <lane id=":1507762172_0_2" index="2" disallow="pedestrian bicycle tram rail_urban rail rail_electric rail_fast ship cable_car subway" speed="13.89" length="1.22" shape="6741.20,5241.84 6742.31,5242.33"/>
    </edge>
    <edge id=":1507762172_3" function="internal">
        <lane id=":1507762172_3_0" index="0" allow="bicycle" speed="13.89" length="0.79" width="1.50" shape="6731.76,5240.67 6732.54,5240.56"/>
        <lane id=":1507762172_3_1" index="1" disallow="pedestrian bicycle tram rail_urban rail rail_electric rail_fast ship cable_car subway" speed="13.89" length="0.79" shape="6734.08,5241.03 6734.87,5240.91"/>
        <lane id=":1507762172_3_2" index="2" disallow="pedestrian bicycle tram rail_urban rail rail_electric rail_fast ship cable_car subway" speed="13.89" length="0.79" shape="6737.24,5241.53 6738.03,5241.37"/>
    </edge>
    <edge id=":1507762172_w0" function="walkingarea">
        <lane id=":1507762172_w0_0" index="0" allow="pedestrian" speed="2.78" length="1.24" width="3.00" shape="6748.53,5243.31 6751.50,5243.78 6750.40,5243.21 6747.43,5242.77"/>
    </edge>
    <edge id=":1507762172_w1" function="walkingarea">
        <lane id=":1507762172_w1_0" index="0" allow="pedestrian" speed="2.78" length="0.78" width="3.00" shape="6731.80,5240.45 6728.83,5240.01 6728.06,5240.08 6731.02,5240.56"/>
    </edge>
    <edge id=":1507762191_0" function="internal">
        <lane id=":1507762191_0_0" index="0" allow="bicycle" speed="13.89" length="7.28" width="2.00" shape="6603.00,5279.62 6600.99,5278.52 6599.44,5278.05 6597.94,5277.51 6596.10,5276.19"/>
        <lane id=":1507762191_0_1" index="1" disallow="pedestrian bicycle tram rail_urban rail rail_electric rail_fast ship cable_car subway" speed="13.89" length="7.28" shape="6604.48,5277.48 6602.55,5276.44 6601.05,5276.01 6599.61,5275.51 6597.84,5274.26"/>
        <lane id=":1507762191_0_2" index="2" disallow="pedestrian bicycle tram rail_urban rail rail_electric rail_fast ship cable_car subway" speed="13.89" length="7.28" shape="6606.30,5274.85 6604.47,5273.88 6603.04,5273.50 6601.66,5273.05 6599.98,5271.88"/>
        <lane id=":1507762191_0_3" index="3" disallow="pedestrian bicycle tram rail_urban rail rail_electric rail_fast ship cable_car subway" speed="13.89" length="7.28" shape="6606.30,5274.85 6604.83,5273.52 6604.11,5272.31 6603.45,5271.03 6602.13,5269.50"/>
    </edge>
    <edge id=":1507762191_w0" function="walkingarea">
        <lane id=":1507762191_w0_0" index="0" allow="pedestrian" speed="2.78" length="7.96" width="2.00" shape="6595.43,5276.93 6594.09,5278.42 6595.43,5279.47 6596.55,5280.06 6597.57,5280.41 6598.62,5280.72 6599.82,5281.21 6601.30,5282.09 6602.43,5280.44 6601.00,5279.59 6599.83,5279.13 6598.81,5278.84 6597.82,5278.51 6596.73,5277.95"/>
    </edge>
    <edge id=":1507762205_0" function="internal">
        <lane id=":1507762205_0_0" index="0" allow="bicycle" speed="13.89" length="8.34" width="1.50" shape="6744.77,5262.57 6744.75,5265.01 6745.29,5266.68 6745.84,5268.35 6745.85,5270.79"/>
        <lane id=":1507762205_0_1" index="1" disallow="pedestrian bicycle tram rail_urban rail rail_electric rail_fast ship cable_car subway" speed="13.89" length="8.34" shape="6742.44,5262.21 6742.43,5264.66 6742.97,5266.33 6743.51,5268.01 6743.52,5270.46"/>
        <lane id=":1507762205_0_2" index="2" disallow="pedestrian bicycle tram rail_urban rail rail_electric rail_fast ship cable_car subway" speed="13.89" length="8.34" shape="6739.28,5261.73 6739.26,5264.18 6739.80,5265.86 6740.35,5267.54 6740.35,5270.00"/>
        <lane id=":1507762205_0_3" index="3" disallow="pedestrian bicycle tram rail_urban rail rail_electric rail_fast ship cable_car subway" speed="13.89" length="8.34" shape="6739.28,5261.73 6738.77,5264.07 6738.22,5265.63 6737.67,5267.19 6737.18,5269.54"/>
    </edge>
    <edge id=":1507762205_w0" function="walkingarea">
        <lane id=":1507762205_w0_0" index="0" allow="pedestrian" speed="2.78" length="8.27" width="3.00" shape="6746.59,5270.90 6749.56,5271.33 6748.47,5263.14 6745.51,5262.69 6745.41,5264.43 6745.64,5265.72 6746.03,5266.79 6746.43,5267.86 6746.67,5269.15"/>
    </edge>
    <edge id=":1507762224_0" function="internal">
        <lane id=":1507762224_0_0" index="0" allow="bicycle" speed="13.89" length="8.24" width="2.00" shape="6673.92,5297.58 6676.30,5297.72 6677.95,5297.35 6679.61,5296.96 6682.00,5297.03"/>
        <lane id=":1507762224_0_1" index="1" disallow="pedestrian bicycle tram rail_urban rail rail_electric rail_fast ship cable_car subway" speed="13.89" length="8.24" shape="6673.46,5300.14 6675.86,5300.28 6677.53,5299.91 6679.20,5299.53 6681.61,5299.60"/>
        <lane id=":1507762224_0_2" index="2" disallow="pedestrian bicycle tram rail_urban rail rail_electric rail_fast ship cable_car subway" speed="13.89" length="8.24" shape="6672.89,5303.29 6675.31,5303.43 6677.00,5303.07 6678.69,5302.69 6681.12,5302.77"/>
        <lane id=":1507762224_0_3" index="3" disallow="pedestrian bicycle tram rail_urban rail rail_electric rail_fast ship cable_car subway" speed="13.89" length="8.24" shape="6672.89,5303.29 6675.23,5303.92 6676.76,5304.65 6678.29,5305.36 6680.64,5305.93"/>
    </edge>
    <edge id=":1507762224_w0" function="walkingarea">
        <lane id=":1507762224_w0_0" index="0" allow="pedestrian" speed="2.78" length="8.04" width="2.00" shape="6682.15,5296.04 6682.45,5294.07 6674.46,5294.63 6674.10,5296.60 6675.80,5296.76 6677.07,5296.64 6678.12,5296.36 6679.17,5296.08 6680.44,5295.92"/>
    </edge>
    <edge id=":1507762241_0" function="internal">
        <lane id=":1507762241_0_0" index="0" allow="bicycle" speed="13.89" length="8.21" width="2.00" shape="6789.78,5333.92 6787.39,5333.78 6785.73,5334.06 6784.06,5334.35 6781.67,5334.23"/>
        <lane id=":1507762241_0_1" index="1" disallow="pedestrian bicycle tram rail_urban rail rail_electric rail_fast ship cable_car subway" speed="13.89" length="8.21" shape="6790.21,5331.36 6787.81,5331.21 6786.14,5331.49 6784.47,5331.78 6782.07,5331.66"/>
        <lane id=":1507762241_0_2" index="2" disallow="pedestrian bicycle tram rail_urban rail rail_electric rail_fast ship cable_car subway" speed="13.89" length="8.21" shape="6790.74,5328.20 6788.32,5328.05 6786.65,5328.33 6784.97,5328.62 6782.56,5328.50"/>
        <lane id=":1507762241_0_3" index="3" disallow="pedestrian bicycle tram rail_urban rail rail_electric rail_fast ship cable_car subway" speed="13.89" length="8.21" shape="6790.74,5328.20 6788.40,5327.56 6786.90,5326.75 6785.39,5325.95 6783.05,5325.33"/>
    </edge>
    <edge id=":1507762241_w0" function="walkingarea">
        <lane id=":1507762241_w0_0" index="0" allow="pedestrian" speed="2.78" length="8.09" width="2.00" shape="6781.51,5335.22 6781.21,5337.19 6789.28,5336.88 6789.61,5334.91 6787.90,5334.74 6786.63,5334.83 6785.57,5335.05 6784.51,5335.26 6783.23,5335.36"/>
    </edge>
    <edge id=":1507762247_0" function="internal">
        <lane id=":1507762247_0_0" index="0" allow="bicycle" speed="13.89" length="8.18" width="1.50" shape="6710.77,5369.98 6710.89,5367.56 6710.60,5365.89 6710.32,5364.21 6710.47,5361.80"/>
        <lane id=":1507762247_0_1" index="1" disallow="pedestrian bicycle tram rail_urban rail rail_electric rail_fast ship cable_car subway" speed="13.89" length="8.18" shape="6713.09,5370.34 6713.21,5367.93 6712.92,5366.26 6712.64,5364.59 6712.79,5362.19"/>
        <lane id=":1507762247_0_2" index="2" disallow="pedestrian bicycle tram rail_urban rail rail_electric rail_fast ship cable_car subway" speed="13.89" length="8.18" shape="6716.25,5370.83 6716.37,5368.43 6716.08,5366.77 6715.80,5365.12 6715.95,5362.73"/>
        <lane id=":1507762247_0_3" index="3" disallow="pedestrian bicycle tram rail_urban rail rail_electric rail_fast ship cable_car subway" speed="13.89" length="8.18" shape="6716.25,5370.83 6716.86,5368.52 6717.66,5367.04 6718.46,5365.56 6719.10,5363.26"/>
    </edge>
    <edge id=":1507762247_w0" function="walkingarea">
        <lane id=":1507762247_w0_0" index="0" allow="pedestrian" speed="2.78" length="8.21" width="3.00" shape="6709.73,5361.67 6706.78,5361.17 6706.60,5362.91 6706.69,5364.21 6706.90,5365.29 6707.12,5366.36 6707.21,5367.66 6707.06,5369.40 6710.03,5369.86 6710.18,5368.13 6710.08,5366.84 6709.86,5365.77 6709.65,5364.69 6709.56,5363.40"/>
    </edge>
    <edge id=":25579783_0" function="internal">
        <lane id=":25579783_0_0" index="0" allow="bicycle" speed="13.89" length="0.51" width="2.00" shape="6675.31,5315.99 6675.07,5315.95 6674.91,5315.92 6674.75,5315.88 6674.52,5315.82"/>
        <lane id=":25579783_0_1" index="1" disallow="pedestrian bicycle tram rail_urban rail rail_electric rail_fast ship cable_car subway" speed="13.89" length="0.51" shape="6675.73,5313.43 6675.57,5313.40 6675.47,5313.38 6675.36,5313.35 6675.21,5313.31"/>
        <lane id=":25579783_0_2" index="2" disallow="pedestrian bicycle tram rail_urban rail rail_electric rail_fast ship cable_car subway" speed="13.89" length="0.51" shape="6676.24,5310.27 6676.19,5310.26 6676.15,5310.25 6676.12,5310.24 6676.07,5310.23"/>
    </edge>
    <edge id=":25579783_w0" function="walkingarea">
        <lane id=":25579783_w0_0" index="0" allow="pedestrian" speed="2.78" length="1.03" width="2.00" shape="6674.25,5316.78 6673.72,5318.71 6673.95,5318.77 6674.12,5318.82 6674.27,5318.85 6674.41,5318.88 6674.59,5318.91 6674.83,5318.95 6675.15,5316.98 6674.96,5316.95 6674.81,5316.92 6674.70,5316.90 6674.58,5316.87 6674.44,5316.83"/>
    </edge>
    <edge id=":25579792_w0" function="walkingarea">
        <lane id=":25579792_w0_0" index="0" allow="pedestrian" speed="2.78" length="18.80" width="3.00" shape="6638.86,5654.02 6635.97,5653.22 6656.99,5658.98 6654.10,5658.18"/>
    </edge>
    <edge id=":279461126_0" function="internal">
        <lane id=":279461126_0_0" index="0" allow="bicycle" speed="13.89" length="0.22" width="1.50" shape="6680.68,5556.73 6680.63,5556.91"/>
        <lane id=":279461126_0_1" index="1" disallow="pedestrian bicycle tram rail_urban rail rail_electric rail_fast ship cable_car subway" speed="13.89" length="0.22" shape="6678.41,5556.10 6678.36,5556.31"/>
        <lane id=":279461126_0_2" index="2" disallow="pedestrian bicycle tram rail_urban rail rail_electric rail_fast ship cable_car subway" speed="13.89" length="0.22" shape="6675.33,5555.25 6675.26,5555.50"/>
    </edge>
    <edge id=":279461126_3" function="internal">
        <lane id=":279461126_3_0" index="0" allow="bicycle" speed="13.89" length="0.36" width="1.50" shape="6666.80,5553.29 6666.90,5552.91"/>
        <lane id=":279461126_3_1" index="1" disallow="pedestrian bicycle tram rail_urban rail rail_electric rail_fast ship cable_car subway" speed="13.89" length="0.36" shape="6669.07,5553.89 6669.16,5553.54"/>
        <lane id=":279461126_3_2" index="2" disallow="pedestrian bicycle tram rail_urban rail rail_electric rail_fast ship cable_car subway" speed="13.89" length="0.36" shape="6672.17,5554.70 6672.25,5554.39"/>
    </edge>
    <edge id=":279461126_w0" function="walkingarea">
        <lane id=":279461126_w0_0" index="0" allow="pedestrian" speed="2.78" length="0.15" width="3.00" shape="6681.36,5557.10 6684.26,5557.86 6684.29,5557.74 6681.40,5556.93"/>
    </edge>
    <edge id=":279461126_w1" function="walkingarea">
        <lane id=":279461126_w1_0" index="0" allow="pedestrian" speed="2.78" length="0.43" width="3.00" shape="6666.18,5552.71 6663.29,5551.91 6663.17,5552.34 6666.07,5553.10"/>
    </edge>
    <edge id=":281384843_0" function="internal">
        <lane id=":281384843_0_0" index="0" allow="bicycle" speed="13.89" length="0.62" width="2.00" shape="6628.05,5296.92 6627.42,5296.52"/>
        <lane id=":281384843_0_1" index="1" disallow="pedestrian bicycle tram rail_urban rail rail_electric rail_fast ship cable_car subway" speed="13.89" length="0.62" shape="6629.43,5294.72 6628.89,5294.38"/>
        <lane id=":281384843_0_2" index="2" disallow="pedestrian bicycle tram rail_urban rail rail_electric rail_fast ship cable_car subway" speed="13.89" length="0.62" shape="6631.12,5292.00 6630.72,5291.75"/>
    </edge>
    <edge id=":281384843_w0" function="walkingarea">
        <lane id=":281384843_w0_0" index="0" allow="pedestrian" speed="2.78" length="0.85" width="2.00" shape="6626.85,5297.34 6625.71,5298.98 6626.47,5299.47 6627.52,5297.77"/>
    </edge>
    <edge id=":283155101_0" function="internal">
        <lane id=":283155101_0_0" index="0" allow="bicycle" speed="13.89" length="0.20" width="1.50" shape="6757.40,5170.33 6757.37,5170.49"/>
        <lane id=":283155101_0_1" index="1" allow="private emergency authority vip passenger hov taxi bus coach delivery truck trailer motorcycle moped evehicle" speed="13.89" length="0.20" shape="6755.08,5169.95 6755.05,5170.14"/>
        <lane id=":283155101_0_2" index="2" disallow="pedestrian bicycle tram rail_urban rail rail_electric rail_fast ship cable_car subway" speed="13.89" length="0.20" shape="6751.92,5169.42 6751.88,5169.67"/>
    </edge>
    <edge id=":283155101_3" function="internal">
        <lane id=":283155101_3_0" index="0" allow="bicycle" speed="13.89" length="0.36" width="1.50" shape="6743.23,5168.39 6743.29,5167.99"/>
        <lane id=":283155101_3_1" index="1" disallow="pedestrian bicycle tram rail_urban rail rail_electric rail_fast ship cable_car subway" speed="13.89" length="0.36" shape="6745.55,5168.74 6745.61,5168.37"/>
        <lane id=":283155101_3_2" index="2" disallow="pedestrian bicycle tram rail_urban rail rail_electric rail_fast ship cable_car subway" speed="13.89" length="0.36" shape="6748.72,5169.21 6748.76,5168.90"/>
    </edge>
    <edge id=":283155101_w0" function="walkingarea">
        <lane id=":283155101_w0_0" index="0" allow="pedestrian" speed="2.78" length="0.12" width="3.00" shape="6758.11,5170.60 6761.08,5171.04 6758.14,5170.45"/>
    </edge>
    <edge id=":283155101_w1" function="walkingarea">
        <lane id=":283155101_w1_0" index="0" allow="pedestrian" speed="2.78" length="0.45" width="3.00" shape="6742.55,5167.86 6739.59,5167.37 6739.52,5167.84 6742.48,5168.28"/>
    </edge>
    <edge id=":3022_w0" function="walkingarea">
        <lane id=":3022_w0_0" index="0" allow="pedestrian" speed="2.78" length="23.69" width="2.00" shape="6520.51,5183.18 6521.84,5181.68 6504.96,5201.05 6506.27,5199.54"/>
    </edge>
    <edge id=":3040_0" function="internal">
        <lane id=":3040_0_0" index="0" allow="bicycle" speed="6.72" length="4.41" width="1.50" shape="6742.85,5328.20 6739.52,5327.97 6738.47,5328.17"/>
    </edge>
    <edge id=":3040_1" function="internal">
        <lane id=":3040_1_0" index="0" allow="bicycle" speed="13.89" length="31.60" width="2.00" shape="6742.85,5328.20 6711.88,5321.92"/>
    </edge>
    <edge id=":3040_2" function="internal">
        <lane id=":3040_2_0" index="0" allow="bicycle" speed="13.89" length="28.00" width="1.50" shape="6742.84,5328.28 6738.54,5328.08 6735.62,5328.48 6716.18,5325.12 6716.40,5324.12"/>
    </edge>
    <edge id=":3040_3" function="internal">
        <lane id=":3040_3_0" index="0" disallow="pedestrian bicycle tram rail_urban rail rail_electric rail_fast ship cable_car subway" speed="7.98" length="6.41" shape="6743.31,5325.64 6738.92,5325.41 6736.96,5325.91"/>
    </edge>
    <edge id=":3040_4" function="internal">
        <lane id=":3040_4_0" index="0" disallow="pedestrian bicycle tram rail_urban rail rail_electric rail_fast ship cable_car subway" speed="13.89" length="31.67" shape="6743.31,5325.64 6712.30,5319.35"/>
        <lane id=":3040_4_1" index="1" disallow="pedestrian bicycle tram rail_urban rail rail_electric rail_fast ship cable_car subway" speed="13.89" length="31.67" shape="6743.87,5322.48 6712.81,5316.19"/>
    </edge>
    <edge id=":3040_6" function="internal">
        <lane id=":3040_6_0" index="0" disallow="pedestrian bicycle tram rail_urban rail rail_electric rail_fast ship cable_car subway" speed="11.23" length="14.66" shape="6744.43,5319.33 6735.98,5316.96 6731.21,5313.50"/>
    </edge>
    <edge id=":3040_28" function="internal">
        <lane id=":3040_28_0" index="0" allow="bicycle" speed="6.72" length="5.59" width="1.50" shape="6738.47,5328.17 6737.03,5328.46 6735.38,5329.66 6734.58,5331.57"/>
    </edge>
    <edge id=":3040_29" function="internal">
        <lane id=":3040_29_0" index="0" allow="bicycle" speed="13.89" length="26.05" width="1.50" shape="6716.40,5324.12 6719.61,5309.86 6721.53,5298.60"/>
    </edge>
    <edge id=":3040_30" function="internal">
        <lane id=":3040_30_0" index="0" disallow="pedestrian bicycle tram rail_urban rail rail_electric rail_fast ship cable_car subway" speed="7.98" length="7.54" shape="6736.96,5325.91 6735.62,5326.26 6733.40,5328.18 6732.26,5331.18"/>
    </edge>
    <edge id=":3040_31" function="internal">
        <lane id=":3040_31_0" index="0" disallow="pedestrian bicycle tram rail_urban rail rail_electric rail_fast ship cable_car subway" speed="11.23" length="14.85" shape="6731.21,5313.50 6730.37,5312.89 6727.61,5307.15 6727.68,5299.71"/>
    </edge>
    <edge id=":3040_7" function="internal">
        <lane id=":3040_7_0" index="0" allow="bicycle" speed="6.25" length="8.59" width="1.50" shape="6741.32,5302.19 6741.39,5304.25 6742.28,5305.88 6743.97,5307.06 6746.47,5307.79"/>
    </edge>
    <edge id=":3040_8" function="internal">
        <lane id=":3040_8_0" index="0" allow="bicycle" speed="13.89" length="30.15" width="1.50" shape="6741.32,5302.19 6734.58,5331.57"/>
    </edge>
    <edge id=":3040_9" function="internal">
        <lane id=":3040_9_0" index="0" allow="bicycle" speed="13.89" length="30.00" width="1.50" shape="6741.53,5302.22 6741.50,5303.46 6742.41,5306.28 6738.60,5328.23 6736.37,5327.84 6735.15,5327.52"/>
    </edge>
    <edge id=":3040_10" function="internal">
        <lane id=":3040_10_0" index="0" disallow="pedestrian bicycle tram rail_urban rail rail_electric rail_fast ship cable_car subway" speed="7.65" length="3.50" shape="6739.00,5301.77 6739.05,5304.99 6739.17,5305.24"/>
    </edge>
    <edge id=":3040_11" function="internal">
        <lane id=":3040_11_0" index="0" disallow="pedestrian bicycle tram rail_urban rail rail_electric rail_fast ship cable_car subway" speed="13.89" length="30.20" shape="6739.00,5301.77 6732.26,5331.18"/>
        <lane id=":3040_11_1" index="1" disallow="pedestrian bicycle tram rail_urban rail rail_electric rail_fast ship cable_car subway" speed="13.89" length="30.20" shape="6735.85,5301.19 6729.10,5330.65"/>
    </edge>
    <edge id=":3040_13" function="internal">
        <lane id=":3040_13_0" index="0" disallow="pedestrian bicycle tram rail_urban rail rail_electric rail_fast ship cable_car subway" speed="11.15" length="12.52" shape="6732.70,5300.62 6730.46,5308.48 6727.79,5311.91"/>
    </edge>
    <edge id=":3040_32" function="internal">
        <lane id=":3040_32_0" index="0" allow="bicycle" speed="13.89" length="23.95" width="1.50" shape="6735.15,5327.52 6720.68,5323.65 6711.88,5321.92"/>
    </edge>
    <edge id=":3040_33" function="internal">
        <lane id=":3040_33_0" index="0" disallow="pedestrian bicycle tram rail_urban rail rail_electric rail_fast ship cable_car subway" speed="7.65" length="9.05" shape="6739.17,5305.24 6740.24,5307.49 6742.56,5309.28 6746.02,5310.35"/>
    </edge>
    <edge id=":3040_34" function="internal">
        <lane id=":3040_34_0" index="0" disallow="pedestrian bicycle tram rail_urban rail rail_electric rail_fast ship cable_car subway" speed="11.15" length="16.40" shape="6727.79,5311.91 6726.40,5313.70 6720.52,5316.27 6712.81,5316.19"/>
    </edge>
    <edge id=":3040_14" function="internal">
        <lane id=":3040_14_0" index="0" allow="bicycle" speed="6.38" length="3.37" width="1.50" shape="6715.10,5302.08 6717.92,5302.23 6718.45,5302.11"/>
    </edge>
    <edge id=":3040_15" function="internal">
        <lane id=":3040_15_0" index="0" allow="bicycle" speed="13.89" length="31.89" width="2.00" shape="6715.10,5302.08 6746.47,5307.79"/>
    </edge>
    <edge id=":3040_16" function="internal">
        <lane id=":3040_16_0" index="0" allow="bicycle" speed="13.89" length="29.00" width="1.50" shape="6715.10,5302.08 6720.39,5301.36 6741.92,5304.05 6741.30,5305.91"/>
    </edge>
    <edge id=":3040_17" function="internal">
        <lane id=":3040_17_0" index="0" disallow="pedestrian bicycle tram rail_urban rail rail_electric rail_fast ship cable_car subway" speed="7.69" length="6.05" shape="6714.68,5304.65 6718.53,5304.80 6720.64,5304.17"/>
    </edge>
    <edge id=":3040_18" function="internal">
        <lane id=":3040_18_0" index="0" disallow="pedestrian bicycle tram rail_urban rail rail_electric rail_fast ship cable_car subway" speed="13.89" length="31.83" shape="6714.68,5304.65 6746.02,5310.35"/>
        <lane id=":3040_18_1" index="1" disallow="pedestrian bicycle tram rail_urban rail rail_electric rail_fast ship cable_car subway" speed="13.89" length="31.83" shape="6714.17,5307.81 6745.46,5313.50"/>
    </edge>
    <edge id=":3040_20" function="internal">
        <lane id=":3040_20_0" index="0" disallow="pedestrian bicycle tram rail_urban rail rail_electric rail_fast ship cable_car subway" speed="11.10" length="12.76" shape="6713.66,5310.96 6721.48,5313.24 6725.12,5316.08"/>
    </edge>
    <edge id=":3040_35" function="internal">
        <lane id=":3040_35_0" index="0" allow="bicycle" speed="6.38" length="5.47" width="1.50" shape="6718.45,5302.11 6720.05,5301.72 6721.48,5300.55 6722.22,5298.72"/>
    </edge>
    <edge id=":3040_36" function="internal">
        <lane id=":3040_36_0" index="0" allow="bicycle" speed="13.89" length="26.55" width="1.50" shape="6741.30,5305.91 6739.33,5311.77 6734.57,5331.57"/>
    </edge>
    <edge id=":3040_37" function="internal">
        <lane id=":3040_37_0" index="0" disallow="pedestrian bicycle tram rail_urban rail rail_electric rail_fast ship cable_car subway" speed="7.69" length="6.70" shape="6720.64,5304.17 6721.45,5303.93 6723.46,5302.04 6724.54,5299.14"/>
    </edge>
    <edge id=":3040_38" function="internal">
        <lane id=":3040_38_0" index="0" disallow="pedestrian bicycle tram rail_urban rail rail_electric rail_fast ship cable_car subway" speed="11.10" length="15.86" shape="6725.12,5316.08 6726.67,5317.28 6729.21,5323.08 6729.10,5330.65"/>
    </edge>
    <edge id=":3040_21" function="internal">
        <lane id=":3040_21_0" index="0" allow="bicycle" speed="6.26" length="8.90" width="1.50" shape="6716.12,5328.46 6716.22,5325.92 6715.54,5323.98 6714.10,5322.64 6711.88,5321.92"/>
    </edge>
    <edge id=":3040_22" function="internal">
        <lane id=":3040_22_0" index="0" allow="bicycle" speed="13.89" length="30.36" width="1.50" shape="6716.12,5328.46 6722.22,5298.72"/>
    </edge>
    <edge id=":3040_23" function="internal">
        <lane id=":3040_23_0" index="0" allow="bicycle" speed="13.89" length="32.00" width="1.50" shape="6716.35,5328.50 6716.78,5325.85 6715.58,5322.83 6713.92,5321.70 6716.89,5301.58 6719.06,5301.81 6720.54,5302.23"/>
    </edge>
    <edge id=":3040_24" function="internal">
        <lane id=":3040_24_0" index="0" disallow="pedestrian bicycle tram rail_urban rail rail_electric rail_fast ship cable_car subway" speed="7.64" length="4.00" shape="6718.44,5328.85 6718.58,5325.15 6718.48,5324.87"/>
    </edge>
    <edge id=":3040_25" function="internal">
        <lane id=":3040_25_0" index="0" disallow="pedestrian bicycle tram rail_urban rail rail_electric rail_fast ship cable_car subway" speed="13.89" length="30.31" shape="6718.44,5328.85 6724.54,5299.14"/>
        <lane id=":3040_25_1" index="1" disallow="pedestrian bicycle tram rail_urban rail rail_electric rail_fast ship cable_car subway" speed="13.89" length="30.31" shape="6721.59,5329.38 6727.68,5299.71"/>
    </edge>
    <edge id=":3040_27" function="internal">
        <lane id=":3040_27_0" index="0" disallow="pedestrian bicycle tram rail_urban rail rail_electric rail_fast ship cable_car subway" speed="11.42" length="11.66" shape="6724.75,5329.92 6727.28,5321.58 6729.09,5319.25"/>
    </edge>
    <edge id=":3040_39" function="internal">
        <lane id=":3040_39_0" index="0" allow="bicycle" speed="13.89" length="26.54" width="1.50" shape="6720.54,5302.23 6724.38,5303.32 6746.47,5307.79"/>
    </edge>
    <edge id=":3040_40" function="internal">
        <lane id=":3040_40_0" index="0" disallow="pedestrian bicycle tram rail_urban rail rail_electric rail_fast ship cable_car subway" speed="7.64" length="8.91" shape="6718.48,5324.87 6717.60,5322.34 6715.51,5320.40 6712.30,5319.35"/>
    </edge>
    <edge id=":3040_41" function="internal">
        <lane id=":3040_41_0" index="0" disallow="pedestrian bicycle tram rail_urban rail rail_electric rail_fast ship cable_car subway" speed="11.42" length="18.50" shape="6729.09,5319.25 6731.58,5316.06 6737.64,5313.37 6745.46,5313.50"/>
    </edge>
    <edge id=":3040_c0" function="crossing" crossingEdges="305495773#0 814691984#1">
        <lane id=":3040_c0_0" index="0" allow="pedestrian" speed="2.78" length="22.76" width="4.00" shape="6744.68,5306.46 6740.72,5328.88" outlineShape="6746.65,5306.81 6742.69,5329.22 6742.64,5329.32 6742.66,5329.18 6740.61,5328.96 6738.87,5328.99 6738.67,5329.04 6742.88,5305.14 6746.65,5306.81 6747.00,5304.84 6745.02,5302.80 6742.05,5302.37 6742.13,5302.30 6742.04,5303.42 6742.34,5304.40 6742.88,5305.14"/>
    </edge>
    <edge id=":3040_c1" function="crossing" crossingEdges="31894763#0 137463477#1">