<?xml version="1.0" encoding="UTF-8"?>

<sumoConfiguration
    xmlns:xsi="http://www.w3.org/2001/XMLSchema-instance"
    xsi:noNamespaceSchemaLocation="http://sumo.dlr.de/xsd/sumoConfiguration.xsd">

    <time>
        <step-length value="0.10"/>
    </time>

</sumoConfiguration>